version 3
run Aodv-0-20231201-10:46:57-15632
attr configname Aodv
attr datetime 20231201-10:46:57
attr datetimef 20231201-104657
attr experiment Aodv
attr inifile omnetpp.ini
attr iterationvars ""
attr iterationvarsd ""
attr iterationvarsf ""
attr measurement ""
attr network ManetprotocolsShowcaseB
attr processid 15632
attr repetition 0
attr replication #0
attr resultdir results
attr runnumber 0
attr seedset 0
config image-path ../../images
config sim-time-limit 100s
config extends MobileNodesBase
config *.*.routingApp.typename Aodv
config *.*.routingApp.activeRouteTimeout 1s
config *.*.routingApp.deletePeriod 0.5s
config *.visualizer.*.routingTableVisualizer[0].displayRoutingTables true
config *.visualizer.*.routingTableVisualizer[0].destinationFilter "\"destination\""
config network ManetprotocolsShowcaseB
config **.transmitter.power 1mW
config *.node*.mobility.typename LinearMobility
config *.node*.mobility.initialMovementHeading uniform(0deg,360deg)
config *.node*.mobility.speed 25mps
config **.constraintAreaMaxX 500m
config **.constraintAreaMaxY 500m
config **.constraintAreaMinX 0m
config **.constraintAreaMinY 0m
config *.visualizer.*.routingTableVisualizer[0].displayLabels false
config *.visualizer.*.routingTableVisualizer[0].displayRoutesIndividually false
config *.visualizer.*.routingTableVisualizer[0].lineShift 0
config *.visualizer.*.networkRouteVisualizer[0].displayRoutes true
config *.visualizer.*.networkRouteVisualizer[0].packetFilter "\"*ping*\""
config *.visualizer.*.interfaceTableVisualizer[0].displayInterfaceTables true
config *.visualizer.*.interfaceTableVisualizer[0].format "\"%a/%l\""
config *.source.numApps 1
config *.source.app[0].typename PingApp
config *.source.app[0].destAddr "\"destination\""
config *.source.app[0].printPing true
config *.visualizer.*.numDataLinkVisualizers 5
config *.visualizer.*.dataLinkVisualizer[*].activityLevel "\"peer\""
config *.visualizer.*.dataLinkVisualizer[*].displayLinks true
config *.visualizer.*.dataLinkVisualizer[0].packetFilter "\"aodv::Rreq\""
config *.visualizer.*.dataLinkVisualizer[0].*Color "\"orange\""
config *.visualizer.*.dataLinkVisualizer[1].packetFilter "\"ping* or UDP*\""
config *.visualizer.*.dataLinkVisualizer[1].*Color "\"yellow\""
config *.visualizer.*.dataLinkVisualizer[2].packetFilter "\"aodv::Rrep\""
config *.visualizer.*.dataLinkVisualizer[2].*Color "\"blue\""
config *.visualizer.*.dataLinkVisualizer[3].packetFilter "\"aodv::Rerr\""
config *.visualizer.*.dataLinkVisualizer[3].*Color "\"red\""
config *.visualizer.*.dataLinkVisualizer[4].packetFilter "\"Hello\""
config *.visualizer.*.dataLinkVisualizer[4].*Color "\"green\""
config **.wlan[*].bitrate 24Mbps
config *.configurator.addStaticRoutes false
config **.netmaskRoutes "\"\""
config **.arp.typename GlobalArp

par ManetprotocolsShowcaseB.source.radioIn[0].channel typename "\"ned.IdealChannel\""
par ManetprotocolsShowcaseB.source.mobility typename "\"inet.mobility.static.StationaryMobility\""
par ManetprotocolsShowcaseB.source.mobility subjectModule "\"^\""
par ManetprotocolsShowcaseB.source.mobility coordinateSystemModule "\"\""
par ManetprotocolsShowcaseB.source.mobility displayStringTextFormat "\"p: %p\\nv: %v\""
attr mutable ""
par ManetprotocolsShowcaseB.source.mobility updateDisplayString true
par ManetprotocolsShowcaseB.source.mobility constraintAreaMinX 0m
attr unit m
par ManetprotocolsShowcaseB.source.mobility constraintAreaMinY 0m
attr unit m
par ManetprotocolsShowcaseB.source.mobility constraintAreaMinZ "-inf m"
attr unit m
par ManetprotocolsShowcaseB.source.mobility constraintAreaMaxX 500m
attr unit m
par ManetprotocolsShowcaseB.source.mobility constraintAreaMaxY 500m
attr unit m
par ManetprotocolsShowcaseB.source.mobility constraintAreaMaxZ "inf m"
attr unit m
par ManetprotocolsShowcaseB.source.mobility initialX 274.407m
attr unit m
par ManetprotocolsShowcaseB.source.mobility initialY 296.422m
attr unit m
par ManetprotocolsShowcaseB.source.mobility initialZ 0m
attr unit m
par ManetprotocolsShowcaseB.source.mobility initialLatitude "nan deg"
attr unit deg
par ManetprotocolsShowcaseB.source.mobility initialLongitude "nan deg"
attr unit deg
par ManetprotocolsShowcaseB.source.mobility initialAltitude 0m
attr unit m
par ManetprotocolsShowcaseB.source.mobility initialHeading 0deg
attr unit deg
par ManetprotocolsShowcaseB.source.mobility initialElevation 0deg
attr unit deg
par ManetprotocolsShowcaseB.source.mobility initialBank 0deg
attr unit deg
par ManetprotocolsShowcaseB.source.mobility initFromDisplayString true
par ManetprotocolsShowcaseB.source.mobility updateFromDisplayString true
par ManetprotocolsShowcaseB.source.interfaceTable typename "\"inet.networklayer.common.InterfaceTable\""
par ManetprotocolsShowcaseB.source.interfaceTable displayAddresses false
par ManetprotocolsShowcaseB.source.cb typename "\"inet.common.MessageDispatcher\""
par ManetprotocolsShowcaseB.source.cb displayStringTextFormat "\"processed %p pk (%l)\""
par ManetprotocolsShowcaseB.source.cb forwardServiceRegistration true
par ManetprotocolsShowcaseB.source.cb forwardProtocolRegistration true
par ManetprotocolsShowcaseB.source.bl typename "\"inet.common.MessageDispatcher\""
par ManetprotocolsShowcaseB.source.bl displayStringTextFormat "\"processed %p pk (%l)\""
par ManetprotocolsShowcaseB.source.bl forwardServiceRegistration true
par ManetprotocolsShowcaseB.source.bl forwardProtocolRegistration true
par ManetprotocolsShowcaseB.source.li typename "\"inet.common.MessageDispatcher\""
par ManetprotocolsShowcaseB.source.li displayStringTextFormat "\"processed %p pk (%l)\""
par ManetprotocolsShowcaseB.source.li forwardServiceRegistration true
par ManetprotocolsShowcaseB.source.li forwardProtocolRegistration true
par ManetprotocolsShowcaseB.source.lo[0].upperLayerIn.channel typename "\"ned.IdealChannel\""
par ManetprotocolsShowcaseB.source.lo[0].lo.upperLayerOut.channel typename "\"ned.IdealChannel\""
par ManetprotocolsShowcaseB.source.lo[0].lo typename "\"inet.linklayer.loopback.Loopback\""
par ManetprotocolsShowcaseB.source.lo[0].lo interfaceTableModule "\"ManetprotocolsShowcaseB.source.interfaceTable\""
par ManetprotocolsShowcaseB.source.lo[0].lo mtu 4470B
attr unit B
scalar ManetprotocolsShowcaseB.source.lo[0].lo rcvdPkFromHl:count 0
attr interpolationmode none
attr recordingmode count
attr source packetReceivedFromUpper
attr title "packets received from higher layer, count"
scalar ManetprotocolsShowcaseB.source.lo[0].lo rcvdPkFromHl:sum(packetBytes) 0
attr interpolationmode none
attr recordingmode sum(packetBytes)
attr source packetReceivedFromUpper
attr title "packets received from higher layer, sum(packetBytes)"
scalar ManetprotocolsShowcaseB.source.lo[0].lo passedUpPk:count 0
attr interpolationmode none
attr recordingmode count
attr source packetSentToUpper
attr title "packets passed to higher layer, count"
scalar ManetprotocolsShowcaseB.source.lo[0].lo passedUpPk:sum(packetBytes) 0
attr interpolationmode none
attr recordingmode sum(packetBytes)
attr source packetSentToUpper
attr title "packets passed to higher layer, sum(packetBytes)"
par ManetprotocolsShowcaseB.source.lo[0] typename "\"inet.linklayer.loopback.LoopbackInterface\""
par ManetprotocolsShowcaseB.source.lo[0] displayStringTextFormat "\"%a (%i)\\n%m\""
par ManetprotocolsShowcaseB.source.lo[0] recordPcap false
par ManetprotocolsShowcaseB.source.lo[0] numPcapRecorders 0
par ManetprotocolsShowcaseB.source.lo[0] interfaceTableModule "\"ManetprotocolsShowcaseB.source.interfaceTable\""
scalar ManetprotocolsShowcaseB.source.lo[0] packetDropInterfaceDown:count 0
attr interpolationmode none
attr recordingmode count
attr source packetDropReasonIsInterfaceDown(packetDropped)
attr title "packet drops: interface down, count"
scalar ManetprotocolsShowcaseB.source.lo[0] packetDropInterfaceDown:sum(packetBytes) 0
attr interpolationmode none
attr recordingmode sum(packetBytes)
attr source packetDropReasonIsInterfaceDown(packetDropped)
attr title "packet drops: interface down, sum(packetBytes)"
scalar ManetprotocolsShowcaseB.source.lo[0] packetDropNoCarrier:count 0
attr interpolationmode none
attr recordingmode count
attr source packetDropReasonIsNoCarrier(packetDropped)
attr title "packet drops: no carrier, count"
scalar ManetprotocolsShowcaseB.source.lo[0] packetDropNoCarrier:sum(packetBytes) 0
attr interpolationmode none
attr recordingmode sum(packetBytes)
attr source packetDropReasonIsNoCarrier(packetDropped)
attr title "packet drops: no carrier, sum(packetBytes)"
par ManetprotocolsShowcaseB.source.wlan[0].radioIn.channel typename "\"ned.IdealChannel\""
par ManetprotocolsShowcaseB.source.wlan[0].llc.upperLayerOut.channel typename "\"ned.IdealChannel\""
par ManetprotocolsShowcaseB.source.wlan[0].upperLayerIn.channel typename "\"ned.IdealChannel\""
par ManetprotocolsShowcaseB.source.wlan[0].mib typename "\"inet.linklayer.ieee80211.mib.Ieee80211Mib\""
par ManetprotocolsShowcaseB.source.wlan[0].llc typename "\"inet.linklayer.ieee80211.llc.Ieee80211LlcLpd\""
par ManetprotocolsShowcaseB.source.wlan[0].llc registerProtocol false
par ManetprotocolsShowcaseB.source.wlan[0].mgmt typename "\"inet.linklayer.ieee80211.mgmt.Ieee80211MgmtAdhoc\""
par ManetprotocolsShowcaseB.source.wlan[0].mgmt mibModule "\"ManetprotocolsShowcaseB.source.wlan[0].mib\""
par ManetprotocolsShowcaseB.source.wlan[0].mgmt macModule "\"ManetprotocolsShowcaseB.source.wlan[0].mac\""
par ManetprotocolsShowcaseB.source.wlan[0].mgmt interfaceTableModule "\"ManetprotocolsShowcaseB.source.interfaceTable\""
par ManetprotocolsShowcaseB.source.wlan[0].mac.dcf.channelAccess.pendingQueue typename "\"inet.linklayer.ieee80211.mac.queue.PendingQueue\""
par ManetprotocolsShowcaseB.source.wlan[0].mac.dcf.channelAccess.pendingQueue displayStringTextFormat "\"contains %p pk (%l) pushed %u\\npulled %o removed %r dropped %d\""
par ManetprotocolsShowcaseB.source.wlan[0].mac.dcf.channelAccess.pendingQueue packetCapacity 100
par ManetprotocolsShowcaseB.source.wlan[0].mac.dcf.channelAccess.pendingQueue dataCapacity -1b
attr unit b
par ManetprotocolsShowcaseB.source.wlan[0].mac.dcf.channelAccess.pendingQueue dropperClass "\"inet::queueing::PacketAtCollectionEndDropper\""
par ManetprotocolsShowcaseB.source.wlan[0].mac.dcf.channelAccess.pendingQueue comparatorClass "\"inet::ieee80211::MgmtOverDataComparator\""
par ManetprotocolsShowcaseB.source.wlan[0].mac.dcf.channelAccess.pendingQueue bufferModule "\"\""
scalar ManetprotocolsShowcaseB.source.wlan[0].mac.dcf.channelAccess.pendingQueue queueLength:last 0
attr autoWarmupFilter false
attr interpolationmode sample-hold
attr recordingmode last
attr source "warmup(atomic(constant0(packetPushEnded) + count(packetPushStarted) - count(packetPulled) - count(packetRemoved) - count(packetDropped)))"
attr title "queue length, last"
attr unit pk
scalar ManetprotocolsShowcaseB.source.wlan[0].mac.dcf.channelAccess.pendingQueue queueLength:max 1
attr autoWarmupFilter false
attr interpolationmode sample-hold
attr recordingmode max
attr source "warmup(atomic(constant0(packetPushEnded) + count(packetPushStarted) - count(packetPulled) - count(packetRemoved) - count(packetDropped)))"
attr title "queue length, max"
attr unit pk
scalar ManetprotocolsShowcaseB.source.wlan[0].mac.dcf.channelAccess.pendingQueue queueLength:timeavg 0.00015459419635997
attr autoWarmupFilter false
attr interpolationmode sample-hold
attr recordingmode timeavg
attr source "warmup(atomic(constant0(packetPushEnded) + count(packetPushStarted) - count(packetPulled) - count(packetRemoved) - count(packetDropped)))"
attr title "queue length, timeavg"
attr unit pk
scalar ManetprotocolsShowcaseB.source.wlan[0].mac.dcf.channelAccess.pendingQueue queueBitLength:last 0
attr autoWarmupFilter false
attr interpolationmode sample-hold
attr recordingmode last
attr source "warmup(atomic(constant0(packetPushEnded) + sum(packetLength(packetPushStarted)) - sum(packetLength(packetPulled)) - sum(packetLength(packetRemoved)) - sum(packetLength(packetDropped))))"
attr title "queue bit length, last"
attr unit b
scalar ManetprotocolsShowcaseB.source.wlan[0].mac.dcf.channelAccess.pendingQueue queueBitLength:max 960
attr autoWarmupFilter false
attr interpolationmode sample-hold
attr recordingmode max
attr source "warmup(atomic(constant0(packetPushEnded) + sum(packetLength(packetPushStarted)) - sum(packetLength(packetPulled)) - sum(packetLength(packetRemoved)) - sum(packetLength(packetDropped))))"
attr title "queue bit length, max"
attr unit b
scalar ManetprotocolsShowcaseB.source.wlan[0].mac.dcf.channelAccess.pendingQueue queueBitLength:timeavg 0.14841042850557
attr autoWarmupFilter false
attr interpolationmode sample-hold
attr recordingmode timeavg
attr source "warmup(atomic(constant0(packetPushEnded) + sum(packetLength(packetPushStarted)) - sum(packetLength(packetPulled)) - sum(packetLength(packetRemoved)) - sum(packetLength(packetDropped))))"
attr title "queue bit length, timeavg"
attr unit b
statistic ManetprotocolsShowcaseB.source.wlan[0].mac.dcf.channelAccess.pendingQueue queueingTime:histogram
field count 4
field mean 3.85e-05
field stddev 7.7e-05
field min 0
field max 0.000154
field sum 0.000154
field sqrsum 2.3716e-08
attr interpolationmode none
attr recordingmode histogram
attr source queueingTime(packetPulled)
attr title "queueing times"
attr unit s
bin	-inf	0
bin	0	3
bin	2e-06	0
bin	4e-06	0
bin	6e-06	0
bin	8e-06	0
bin	1e-05	0
bin	1.2e-05	0
bin	1.4e-05	0
bin	1.6e-05	0
bin	1.8e-05	0
bin	2e-05	0
bin	2.2e-05	0
bin	2.4e-05	0
bin	2.6e-05	0
bin	2.8e-05	0
bin	3e-05	0
bin	3.2e-05	0
bin	3.4e-05	0
bin	3.6e-05	0
bin	3.8e-05	0
bin	4e-05	0
bin	4.2e-05	0
bin	4.4e-05	0
bin	4.6e-05	0
bin	4.8e-05	0
bin	5e-05	0
bin	5.2e-05	0
bin	5.4e-05	0
bin	5.6e-05	0
bin	5.8e-05	0
bin	6e-05	0
bin	6.2e-05	0
bin	6.4e-05	0
bin	6.6e-05	0
bin	6.8e-05	0
bin	7e-05	0
bin	7.2e-05	0
bin	7.4e-05	0
bin	7.6e-05	0
bin	7.8e-05	0
bin	8e-05	0
bin	8.2e-05	0
bin	8.4e-05	0
bin	8.6e-05	0
bin	8.8e-05	0
bin	9e-05	0
bin	9.2e-05	0
bin	9.4e-05	0
bin	9.6e-05	0
bin	9.8e-05	0
bin	0.0001	0
bin	0.000102	0
bin	0.000104	0
bin	0.000106	0
bin	0.000108	0
bin	0.00011	0
bin	0.000112	0
bin	0.000114	0
bin	0.000116	0
bin	0.000118	0
bin	0.00012	0
bin	0.000122	0
bin	0.000124	0
bin	0.000126	0
bin	0.000128	0
bin	0.00013	0
bin	0.000132	0
bin	0.000134	0
bin	0.000136	0
bin	0.000138	0
bin	0.00014	0
bin	0.000142	0
bin	0.000144	0
bin	0.000146	0
bin	0.000148	0
bin	0.00015	0
bin	0.000152	1
bin	0.000154	0
bin	0.000156	0
bin	0.000158	0
bin	0.00016	0
bin	0.000162	0
bin	0.000164	0
bin	0.000166	0
bin	0.000168	0
bin	0.00017	0
bin	0.000172	0
bin	0.000174	0
bin	0.000176	0
bin	0.000178	0
bin	0.00018	0
bin	0.000182	0
bin	0.000184	0
bin	0.000186	0
bin	0.000188	0
bin	0.00019	0
bin	0.000192	0
bin	0.000194	0
scalar ManetprotocolsShowcaseB.source.wlan[0].mac.dcf.channelAccess.pendingQueue outgoingPackets:count 4
attr recordingmode count
attr source packetPulled
attr title "outgoing packets, count"
attr unit pk
scalar ManetprotocolsShowcaseB.source.wlan[0].mac.dcf.channelAccess.pendingQueue outgoingPacketLengths:sum 3328
attr interpolationmode none
attr recordingmode sum
attr source packetLength(packetPulled)
attr title "outgoing packet lengths, sum"
attr unit b
statistic ManetprotocolsShowcaseB.source.wlan[0].mac.dcf.channelAccess.pendingQueue outgoingPacketLengths:histogram
field count 4
field mean 832
field stddev 147.80166891254
field min 704
field max 960
field sum 3328
field sqrsum 2834432
attr interpolationmode none
attr recordingmode histogram
attr source packetLength(packetPulled)
attr title "outgoing packet lengths"
attr unit b
bin	-inf	0
bin	640	0
bin	645	0
bin	650	0
bin	655	0
bin	660	0
bin	665	0
bin	670	0
bin	675	0
bin	680	0
bin	685	0
bin	690	0
bin	695	0
bin	700	2
bin	705	0
bin	710	0
bin	715	0
bin	720	0
bin	725	0
bin	730	0
bin	735	0
bin	740	0
bin	745	0
bin	750	0
bin	755	0
bin	760	0
bin	765	0
bin	770	0
bin	775	0
bin	780	0
bin	785	0
bin	790	0
bin	795	0
bin	800	0
bin	805	0
bin	810	0
bin	815	0
bin	820	0
bin	825	0
bin	830	0
bin	835	0
bin	840	0
bin	845	0
bin	850	0
bin	855	0
bin	860	0
bin	865	0
bin	870	0
bin	875	0
bin	880	0
bin	885	0
bin	890	0
bin	895	0
bin	900	0
bin	905	0
bin	910	0
bin	915	0
bin	920	0
bin	925	0
bin	930	0
bin	935	0
bin	940	0
bin	945	0
bin	950	0
bin	955	0
bin	960	2
bin	965	0
bin	970	0
bin	975	0
bin	980	0
bin	985	0
bin	990	0
bin	995	0
bin	1000	0
bin	1005	0
bin	1010	0
bin	1015	0
bin	1020	0
bin	1025	0
statistic ManetprotocolsShowcaseB.source.wlan[0].mac.dcf.channelAccess.pendingQueue flowQueueingTime:histogram
field count 0
field mean nan
field stddev nan
field min nan
field max nan
field sum 0
field sqrsum 0
attr interpolationmode none
attr recordingmode histogram
attr source queueingTime(demuxFlow(packetPulled))
attr title "flow queueing times"
attr unit s
bin	-inf	0
bin	0	0
bin	1	0
scalar ManetprotocolsShowcaseB.source.wlan[0].mac.dcf.channelAccess.pendingQueue incomingPackets:count 4
attr recordingmode count
attr source packetPushStarted
attr title "incoming packets, count"
attr unit pk
scalar ManetprotocolsShowcaseB.source.wlan[0].mac.dcf.channelAccess.pendingQueue incomingPacketLengths:sum 3328
attr interpolationmode none
attr recordingmode sum
attr source packetLength(packetPushStarted)
attr title "incoming packet lengths, sum"
attr unit b
statistic ManetprotocolsShowcaseB.source.wlan[0].mac.dcf.channelAccess.pendingQueue incomingPacketLengths:histogram
field count 4
field mean 832
field stddev 147.80166891254
field min 704
field max 960
field sum 3328
field sqrsum 2834432
attr interpolationmode none
attr recordingmode histogram
attr source packetLength(packetPushStarted)
attr title "incoming packet lengths"
attr unit b
bin	-inf	0
bin	640	0
bin	645	0
bin	650	0
bin	655	0
bin	660	0
bin	665	0
bin	670	0
bin	675	0
bin	680	0
bin	685	0
bin	690	0
bin	695	0
bin	700	2
bin	705	0
bin	710	0
bin	715	0
bin	720	0
bin	725	0
bin	730	0
bin	735	0
bin	740	0
bin	745	0
bin	750	0
bin	755	0
bin	760	0
bin	765	0
bin	770	0
bin	775	0
bin	780	0
bin	785	0
bin	790	0
bin	795	0
bin	800	0
bin	805	0
bin	810	0
bin	815	0
bin	820	0
bin	825	0
bin	830	0
bin	835	0
bin	840	0
bin	845	0
bin	850	0
bin	855	0
bin	860	0
bin	865	0
bin	870	0
bin	875	0
bin	880	0
bin	885	0
bin	890	0
bin	895	0
bin	900	0
bin	905	0
bin	910	0
bin	915	0
bin	920	0
bin	925	0
bin	930	0
bin	935	0
bin	940	0
bin	945	0
bin	950	0
bin	955	0
bin	960	2
bin	965	0
bin	970	0
bin	975	0
bin	980	0
bin	985	0
bin	990	0
bin	995	0
bin	1000	0
bin	1005	0
bin	1010	0
bin	1015	0
bin	1020	0
bin	1025	0
scalar ManetprotocolsShowcaseB.source.wlan[0].mac.dcf.channelAccess.pendingQueue droppedPacketsQueueOverflow:count 0
attr interpolationmode none
attr recordingmode count
attr source packetDropReasonIsQueueOverflow(packetDropped)
attr title "dropped packets: queue overflow, count"
attr unit pk
scalar ManetprotocolsShowcaseB.source.wlan[0].mac.dcf.channelAccess.pendingQueue droppedPacketLengthsQueueOverflow:sum 0
attr interpolationmode none
attr recordingmode sum
attr source packetLength(packetDropReasonIsQueueOverflow(packetDropped))
attr title "dropped packet lengths: queue overflow, sum"
attr unit b
par ManetprotocolsShowcaseB.source.wlan[0].mac.dcf.channelAccess.inProgressFrames typename "\"inet.linklayer.ieee80211.mac.queue.InProgressFrames\""
par ManetprotocolsShowcaseB.source.wlan[0].mac.dcf.channelAccess.inProgressFrames pendingQueueModule "\"^.pendingQueue\""
par ManetprotocolsShowcaseB.source.wlan[0].mac.dcf.channelAccess.inProgressFrames originatorMacDataServiceModule "\"^.^.originatorMacDataService\""
par ManetprotocolsShowcaseB.source.wlan[0].mac.dcf.channelAccess.inProgressFrames ackHandlerModule "\"^.^.ackHandler\""
statistic ManetprotocolsShowcaseB.source.wlan[0].mac.dcf.channelAccess.inProgressFrames queueingTime:histogram
field count 4
field mean 8.6453647e-05
field stddev 3.2855441509753e-05
field min 5.8e-05
field max 0.000114907294
field sum 0.000345814588
field sqrsum 3.3135372428805e-08
attr interpolationmode none
attr recordingmode histogram
attr source queueingTime(packetDequeued)
attr title "queueing times"
bin	-inf	0
bin	4.3e-05	0
bin	4.4e-05	0
bin	4.5e-05	0
bin	4.6e-05	0
bin	4.7e-05	0
bin	4.8e-05	0
bin	4.9e-05	0
bin	5e-05	0
bin	5.1e-05	0
bin	5.2e-05	0
bin	5.3e-05	0
bin	5.4e-05	0
bin	5.5e-05	0
bin	5.6e-05	0
bin	5.7e-05	2
bin	5.8e-05	0
bin	5.9e-05	0
bin	6e-05	0
bin	6.1e-05	0
bin	6.2e-05	0
bin	6.3e-05	0
bin	6.4e-05	0
bin	6.5e-05	0
bin	6.6e-05	0
bin	6.7e-05	0
bin	6.8e-05	0
bin	6.9e-05	0
bin	7e-05	0
bin	7.1e-05	0
bin	7.2e-05	0
bin	7.3e-05	0
bin	7.4e-05	0
bin	7.5e-05	0
bin	7.6e-05	0
bin	7.7e-05	0
bin	7.8e-05	0
bin	7.9e-05	0
bin	8e-05	0
bin	8.1e-05	0
bin	8.2e-05	0
bin	8.3e-05	0
bin	8.4e-05	0
bin	8.5e-05	0
bin	8.6e-05	0
bin	8.7e-05	0
bin	8.8e-05	0
bin	8.9e-05	0
bin	9e-05	0
bin	9.1e-05	0
bin	9.2e-05	0
bin	9.3e-05	0
bin	9.4e-05	0
bin	9.5e-05	0
bin	9.6e-05	0
bin	9.7e-05	0
bin	9.8e-05	0
bin	9.9e-05	0
bin	0.0001	0
bin	0.000101	0
bin	0.000102	0
bin	0.000103	0
bin	0.000104	0
bin	0.000105	0
bin	0.000106	0
bin	0.000107	0
bin	0.000108	0
bin	0.000109	0
bin	0.00011	0
bin	0.000111	0
bin	0.000112	0
bin	0.000113	0
bin	0.000114	2
bin	0.000115	0
bin	0.000116	0
bin	0.000117	0
bin	0.000118	0
bin	0.000119	0
bin	0.00012	0
bin	0.000121	0
bin	0.000122	0
bin	0.000123	0
bin	0.000124	0
bin	0.000125	0
bin	0.000126	0
bin	0.000127	0
bin	0.000128	0
bin	0.000129	0
bin	0.00013	0
scalar ManetprotocolsShowcaseB.source.wlan[0].mac.dcf.channelAccess.inProgressFrames queueLength:max 1
attr autoWarmupFilter false
attr interpolationmode sample-hold
attr recordingmode max
attr source "warmup(count(packetEnqueued) - count(packetDequeued))"
attr title "queue length, max"
scalar ManetprotocolsShowcaseB.source.wlan[0].mac.dcf.channelAccess.inProgressFrames queueLength:timeavg 0.00018749630849991
attr autoWarmupFilter false
attr interpolationmode sample-hold
attr recordingmode timeavg
attr source "warmup(count(packetEnqueued) - count(packetDequeued))"
attr title "queue length, timeavg"
par ManetprotocolsShowcaseB.source.wlan[0].mac.dcf.channelAccess.contention typename "\"inet.linklayer.ieee80211.mac.contention.Contention\""
par ManetprotocolsShowcaseB.source.wlan[0].mac.dcf.channelAccess.contention initialChannelBusy true
par ManetprotocolsShowcaseB.source.wlan[0].mac.dcf.channelAccess.contention backoffOptimization true
scalar ManetprotocolsShowcaseB.source.wlan[0].mac.dcf.channelAccess.contention stateChanged:count 82
attr enum IDLE,DEFER,IFS_AND_BACKOFF
attr interpolationmode none
attr recordingmode count
attr title "contention state changed, count"
attr type enum
scalar ManetprotocolsShowcaseB.source.wlan[0].mac.dcf.channelAccess.contention channelAccessGranted:count 4
attr recordingmode count
attr title "channel access granted, count"
par ManetprotocolsShowcaseB.source.wlan[0].mac.dcf.channelAccess typename "\"inet.linklayer.ieee80211.mac.channelaccess.Dcaf\""
par ManetprotocolsShowcaseB.source.wlan[0].mac.dcf.channelAccess difsn -1
par ManetprotocolsShowcaseB.source.wlan[0].mac.dcf.channelAccess cwMin -1
par ManetprotocolsShowcaseB.source.wlan[0].mac.dcf.channelAccess cwMax -1
par ManetprotocolsShowcaseB.source.wlan[0].mac.dcf.channelAccess rxModule "\"^.^.rx\""
scalar ManetprotocolsShowcaseB.source.wlan[0].mac.dcf.channelAccess channelOwnershipChanged:count 8
attr interpolationmode sample-hold
attr recordingmode count
attr title "channel ownership, count"
par ManetprotocolsShowcaseB.source.wlan[0].mac.dcf.originatorMacDataService.fragmentationPolicy typename "\"inet.linklayer.ieee80211.mac.fragmentation.BasicFragmentationPolicy\""
par ManetprotocolsShowcaseB.source.wlan[0].mac.dcf.originatorMacDataService.fragmentationPolicy fragmentationThreshold 1500B
attr unit B
par ManetprotocolsShowcaseB.source.wlan[0].mac.dcf.originatorMacDataService typename "\"inet.linklayer.ieee80211.mac.originator.OriginatorMacDataService\""
scalar ManetprotocolsShowcaseB.source.wlan[0].mac.dcf.originatorMacDataService packetAggregated:count 0
attr recordingmode count
attr title "packets aggregated, count"
scalar ManetprotocolsShowcaseB.source.wlan[0].mac.dcf.originatorMacDataService packetFragmented:count 0
attr recordingmode count
attr title "packets fragmented, count"
par ManetprotocolsShowcaseB.source.wlan[0].mac.dcf.recipientMacDataService typename "\"inet.linklayer.ieee80211.mac.recipient.RecipientMacDataService\""
scalar ManetprotocolsShowcaseB.source.wlan[0].mac.dcf.recipientMacDataService packetDropDuplicateDetected:count 0
attr interpolationmode none
attr recordingmode count
attr source packetDropReasonIsDuplicateDetected(packetDropped)
attr title "packet drops: duplicate detected, count"
scalar ManetprotocolsShowcaseB.source.wlan[0].mac.dcf.recipientMacDataService packetDropDuplicateDetected:sum(packetBytes) 0
attr interpolationmode none
attr recordingmode sum(packetBytes)
attr source packetDropReasonIsDuplicateDetected(packetDropped)
attr title "packet drops: duplicate detected, sum(packetBytes)"
scalar ManetprotocolsShowcaseB.source.wlan[0].mac.dcf.recipientMacDataService packetDeaggregated:count 0
attr recordingmode count
attr title "packets deaggregated, count"
scalar ManetprotocolsShowcaseB.source.wlan[0].mac.dcf.recipientMacDataService packetDefragmented:count 6
attr recordingmode count
attr title "packets defragmented, count"
par ManetprotocolsShowcaseB.source.wlan[0].mac.dcf.rateSelection typename "\"inet.linklayer.ieee80211.mac.rateselection.RateSelection\""
par ManetprotocolsShowcaseB.source.wlan[0].mac.dcf.rateSelection rateControlModule "\"^.rateControl\""
par ManetprotocolsShowcaseB.source.wlan[0].mac.dcf.rateSelection multicastFrameBitrate -1bps
attr unit bps
par ManetprotocolsShowcaseB.source.wlan[0].mac.dcf.rateSelection responseAckFrameBitrate -1bps
attr unit bps
par ManetprotocolsShowcaseB.source.wlan[0].mac.dcf.rateSelection responseCtsFrameBitrate -1bps
attr unit bps
par ManetprotocolsShowcaseB.source.wlan[0].mac.dcf.rateSelection dataFrameBitrate 2.4e+07bps
attr unit bps
par ManetprotocolsShowcaseB.source.wlan[0].mac.dcf.rateSelection dataFrameBandwidth "nan Hz"
attr unit Hz
par ManetprotocolsShowcaseB.source.wlan[0].mac.dcf.rateSelection dataFrameNumSpatialStreams -1
par ManetprotocolsShowcaseB.source.wlan[0].mac.dcf.rateSelection mgmtFrameBitrate -1bps
attr unit bps
par ManetprotocolsShowcaseB.source.wlan[0].mac.dcf.rateSelection controlFrameBitrate -1bps
attr unit bps
par ManetprotocolsShowcaseB.source.wlan[0].mac.dcf.recoveryProcedure typename "\"inet.linklayer.ieee80211.mac.originator.NonQosRecoveryProcedure\""
par ManetprotocolsShowcaseB.source.wlan[0].mac.dcf.recoveryProcedure cwCalculatorModule "\"^.channelAccess\""
par ManetprotocolsShowcaseB.source.wlan[0].mac.dcf.recoveryProcedure rtsPolicyModule "\"^.rtsPolicy\""
par ManetprotocolsShowcaseB.source.wlan[0].mac.dcf.recoveryProcedure shortRetryLimit 7
par ManetprotocolsShowcaseB.source.wlan[0].mac.dcf.recoveryProcedure longRetryLimit 4
scalar ManetprotocolsShowcaseB.source.wlan[0].mac.dcf.recoveryProcedure retryLimitReached:count 0
attr recordingmode count
attr title "retry limit reached, count"
par ManetprotocolsShowcaseB.source.wlan[0].mac.dcf.originatorProtectionMechanism typename "\"inet.linklayer.ieee80211.mac.protectionmechanism.OriginatorProtectionMechanism\""
par ManetprotocolsShowcaseB.source.wlan[0].mac.dcf.originatorProtectionMechanism rateSelectionModule "\"^.rateSelection\""
par ManetprotocolsShowcaseB.source.wlan[0].mac.dcf.ackHandler typename "\"inet.linklayer.ieee80211.mac.originator.AckHandler\""
par ManetprotocolsShowcaseB.source.wlan[0].mac.dcf.originatorAckPolicy typename "\"inet.linklayer.ieee80211.mac.originator.OriginatorAckPolicy\""
par ManetprotocolsShowcaseB.source.wlan[0].mac.dcf.originatorAckPolicy rateSelectionModule "\"^.rateSelection\""
par ManetprotocolsShowcaseB.source.wlan[0].mac.dcf.originatorAckPolicy ackTimeout -1s
attr unit s
par ManetprotocolsShowcaseB.source.wlan[0].mac.dcf.recipientAckPolicy typename "\"inet.linklayer.ieee80211.mac.recipient.RecipientAckPolicy\""
par ManetprotocolsShowcaseB.source.wlan[0].mac.dcf.recipientAckPolicy rateSelectionModule "\"^.rateSelection\""
par ManetprotocolsShowcaseB.source.wlan[0].mac.dcf.rtsPolicy typename "\"inet.linklayer.ieee80211.mac.originator.RtsPolicy\""
par ManetprotocolsShowcaseB.source.wlan[0].mac.dcf.rtsPolicy rateSelectionModule "\"^.rateSelection\""
par ManetprotocolsShowcaseB.source.wlan[0].mac.dcf.rtsPolicy ctsTimeout -1s
attr unit s
par ManetprotocolsShowcaseB.source.wlan[0].mac.dcf.rtsPolicy rtsThreshold 2346B
attr unit B
par ManetprotocolsShowcaseB.source.wlan[0].mac.dcf.ctsPolicy typename "\"inet.linklayer.ieee80211.mac.recipient.CtsPolicy\""
par ManetprotocolsShowcaseB.source.wlan[0].mac.dcf.ctsPolicy rxModule "\"^.^.rx\""
par ManetprotocolsShowcaseB.source.wlan[0].mac.dcf.ctsPolicy rateSelectionModule "\"^.rateSelection\""
par ManetprotocolsShowcaseB.source.wlan[0].mac.dcf typename "\"inet.linklayer.ieee80211.mac.coordinationfunction.Dcf\""
par ManetprotocolsShowcaseB.source.wlan[0].mac.dcf rxModule "\"^.rx\""
par ManetprotocolsShowcaseB.source.wlan[0].mac.dcf txModule "\"^.tx\""
scalar ManetprotocolsShowcaseB.source.wlan[0].mac.dcf packetReceivedFromPeer:count 8
attr interpolationmode none
attr recordingmode count
attr title "packets received, count"
scalar ManetprotocolsShowcaseB.source.wlan[0].mac.dcf packetReceivedFromPeer:sum(packetBytes) 584
attr interpolationmode none
attr recordingmode sum(packetBytes)
attr title "packets received, sum(packetBytes)"
scalar ManetprotocolsShowcaseB.source.wlan[0].mac.dcf packetReceivedFromPeerUnicast:count 4
attr interpolationmode none
attr recordingmode count
attr source ieee80211Unicast(packetReceivedFromPeer)
attr title "packets received: unicast, count"
scalar ManetprotocolsShowcaseB.source.wlan[0].mac.dcf packetReceivedFromPeerUnicast:sum(packetBytes) 232
attr interpolationmode none
attr recordingmode sum(packetBytes)
attr source ieee80211Unicast(packetReceivedFromPeer)
attr title "packets received: unicast, sum(packetBytes)"
scalar ManetprotocolsShowcaseB.source.wlan[0].mac.dcf packetReceivedFromPeerMulticast:count 4
attr interpolationmode none
attr recordingmode count
attr source ieee80211Multicast(packetReceivedFromPeer)
attr title "packets received: multicast, count"
scalar ManetprotocolsShowcaseB.source.wlan[0].mac.dcf packetReceivedFromPeerMulticast:sum(packetBytes) 352
attr interpolationmode none
attr recordingmode sum(packetBytes)
attr source ieee80211Multicast(packetReceivedFromPeer)
attr title "packets received: multicast, sum(packetBytes)"
scalar ManetprotocolsShowcaseB.source.wlan[0].mac.dcf packetReceivedFromPeerBroadcast:count 4
attr interpolationmode none
attr recordingmode count
attr source ieee80211Broadcast(packetReceivedFromPeer)
attr title "packets received: broadcast, count"
scalar ManetprotocolsShowcaseB.source.wlan[0].mac.dcf packetReceivedFromPeerBroadcast:sum(packetBytes) 352
attr interpolationmode none
attr recordingmode sum(packetBytes)
attr source ieee80211Broadcast(packetReceivedFromPeer)
attr title "packets received: broadcast, sum(packetBytes)"
scalar ManetprotocolsShowcaseB.source.wlan[0].mac.dcf packetReceivedFromPeerWithRetry:count 0
attr interpolationmode none
attr recordingmode count
attr source ieee80211Retry(packetReceivedFromPeer)
attr title "packets received: with retry, count"
scalar ManetprotocolsShowcaseB.source.wlan[0].mac.dcf packetReceivedFromPeerWithRetry:sum(packetBytes) 0
attr interpolationmode none
attr recordingmode sum(packetBytes)
attr source ieee80211Retry(packetReceivedFromPeer)
attr title "packets received: with retry, sum(packetBytes)"
scalar ManetprotocolsShowcaseB.source.wlan[0].mac.dcf packetReceivedFromPeerWithoutRetry:count 8
attr interpolationmode none
attr recordingmode count
attr source ieee80211NotRetry(packetReceivedFromPeer)
attr title "packets received: without retry, count"
scalar ManetprotocolsShowcaseB.source.wlan[0].mac.dcf packetReceivedFromPeerWithoutRetry:sum(packetBytes) 584
attr interpolationmode none
attr recordingmode sum(packetBytes)
attr source ieee80211NotRetry(packetReceivedFromPeer)
attr title "packets received: without retry, sum(packetBytes)"
scalar ManetprotocolsShowcaseB.source.wlan[0].mac.dcf packetSentToPeer:count 6
attr interpolationmode none
attr recordingmode count
attr title "packets sent, count"
scalar ManetprotocolsShowcaseB.source.wlan[0].mac.dcf packetSentToPeer:sum(packetBytes) 444
attr interpolationmode none
attr recordingmode sum(packetBytes)
attr title "packets sent, sum(packetBytes)"
scalar ManetprotocolsShowcaseB.source.wlan[0].mac.dcf packetSentToPeerUnicast:count 4
attr interpolationmode none
attr recordingmode count
attr source ieee80211Unicast(packetSentToPeer)
attr title "packets sent: unicast, count"
scalar ManetprotocolsShowcaseB.source.wlan[0].mac.dcf packetSentToPeerUnicast:sum(packetBytes) 268
attr interpolationmode none
attr recordingmode sum(packetBytes)
attr source ieee80211Unicast(packetSentToPeer)
attr title "packets sent: unicast, sum(packetBytes)"
scalar ManetprotocolsShowcaseB.source.wlan[0].mac.dcf packetSentToPeerMulticast:count 2
attr interpolationmode none
attr recordingmode count
attr source ieee80211Multicast(packetSentToPeer)
attr title "packets sent: multicast, count"
scalar ManetprotocolsShowcaseB.source.wlan[0].mac.dcf packetSentToPeerMulticast:sum(packetBytes) 176
attr interpolationmode none
attr recordingmode sum(packetBytes)
attr source ieee80211Multicast(packetSentToPeer)
attr title "packets sent: multicast, sum(packetBytes)"
scalar ManetprotocolsShowcaseB.source.wlan[0].mac.dcf packetSentToPeerBroadcast:count 2
attr interpolationmode none
attr recordingmode count
attr source ieee80211Broadcast(packetSentToPeer)
attr title "packets sent: broadcast , count"
scalar ManetprotocolsShowcaseB.source.wlan[0].mac.dcf packetSentToPeerBroadcast:sum(packetBytes) 176
attr interpolationmode none
attr recordingmode sum(packetBytes)
attr source ieee80211Broadcast(packetSentToPeer)
attr title "packets sent: broadcast , sum(packetBytes)"
scalar ManetprotocolsShowcaseB.source.wlan[0].mac.dcf packetSentToPeerWithRetry:count 0
attr interpolationmode none
attr recordingmode count
attr source ieee80211Retry(packetSentToPeer)
attr title "packets sent: with retry, count"
scalar ManetprotocolsShowcaseB.source.wlan[0].mac.dcf packetSentToPeerWithRetry:sum(packetBytes) 0
attr interpolationmode none
attr recordingmode sum(packetBytes)
attr source ieee80211Retry(packetSentToPeer)
attr title "packets sent: with retry, sum(packetBytes)"
scalar ManetprotocolsShowcaseB.source.wlan[0].mac.dcf packetSentToPeerWithoutRetry:count 6
attr interpolationmode none
attr recordingmode count
attr source ieee80211NotRetry(packetSentToPeer)
attr title "packets sent: without retry, count"
scalar ManetprotocolsShowcaseB.source.wlan[0].mac.dcf packetSentToPeerWithoutRetry:sum(packetBytes) 444
attr interpolationmode none
attr recordingmode sum(packetBytes)
attr source ieee80211NotRetry(packetSentToPeer)
attr title "packets sent: without retry, sum(packetBytes)"
scalar ManetprotocolsShowcaseB.source.wlan[0].mac.dcf packetDrop:count 3
attr interpolationmode none
attr recordingmode count
attr source packetDropped
attr title "packet drops, count"
scalar ManetprotocolsShowcaseB.source.wlan[0].mac.dcf packetDrop:sum(packetBytes) 148
attr interpolationmode none
attr recordingmode sum(packetBytes)
attr source packetDropped
attr title "packet drops, sum(packetBytes)"
scalar ManetprotocolsShowcaseB.source.wlan[0].mac.dcf packetDropNotAddressedToUs:count 3
attr interpolationmode none
attr recordingmode count
attr source packetDropReasonIsNotAddressedToUs(packetDropped)
attr title "packet drops: not addressed to us, count"
scalar ManetprotocolsShowcaseB.source.wlan[0].mac.dcf packetDropNotAddressedToUs:sum(packetBytes) 148
attr interpolationmode none
attr recordingmode sum(packetBytes)
attr source packetDropReasonIsNotAddressedToUs(packetDropped)
attr title "packet drops: not addressed to us, sum(packetBytes)"
scalar ManetprotocolsShowcaseB.source.wlan[0].mac.dcf packetDropQueueOverflow:count 0
attr interpolationmode none
attr recordingmode count
attr source packetDropReasonIsQueueOverflow(packetDropped)
attr title "packet drops: queue overflow, count"
scalar ManetprotocolsShowcaseB.source.wlan[0].mac.dcf packetDropQueueOverflow:sum(packetBytes) 0
attr interpolationmode none
attr recordingmode sum(packetBytes)
attr source packetDropReasonIsQueueOverflow(packetDropped)
attr title "packet drops: queue overflow, sum(packetBytes)"
scalar ManetprotocolsShowcaseB.source.wlan[0].mac.dcf packetDropRetryLimitReached:count 0
attr interpolationmode none
attr recordingmode count
attr source packetDropReasonIsRetryLimitReached(packetDropped)
attr title "packet drops: retry limit reached, count"
scalar ManetprotocolsShowcaseB.source.wlan[0].mac.dcf packetDropRetryLimitReached:sum(packetBytes) 0
attr interpolationmode none
attr recordingmode sum(packetBytes)
attr source packetDropReasonIsRetryLimitReached(packetDropped)
attr title "packet drops: retry limit reached, sum(packetBytes)"
scalar ManetprotocolsShowcaseB.source.wlan[0].mac.dcf linkBroken:count 0
attr interpolationmode none
attr recordingmode count
attr title "link breaks, count"
scalar ManetprotocolsShowcaseB.source.wlan[0].mac.dcf frameSequenceFinished:count 4
attr recordingmode count
attr title "finished frame sequences, count"
statistic ManetprotocolsShowcaseB.source.wlan[0].mac.dcf frameSequenceDuration:histogram
field count 4
field mean 8.6453647e-05
field stddev 3.2855441509753e-05
field min 5.8e-05
field max 0.000114907294
field sum 0.000345814588
field sqrsum 3.3135372428805e-08
attr recordingmode histogram
attr source frameSequenceDuration(frameSequenceFinished)
attr title "frame sequence durations"
bin	-inf	0
bin	4.3e-05	0
bin	4.4e-05	0
bin	4.5e-05	0
bin	4.6e-05	0
bin	4.7e-05	0
bin	4.8e-05	0
bin	4.9e-05	0
bin	5e-05	0
bin	5.1e-05	0
bin	5.2e-05	0
bin	5.3e-05	0
bin	5.4e-05	0
bin	5.5e-05	0
bin	5.6e-05	0
bin	5.7e-05	2
bin	5.8e-05	0
bin	5.9e-05	0
bin	6e-05	0
bin	6.1e-05	0
bin	6.2e-05	0
bin	6.3e-05	0
bin	6.4e-05	0
bin	6.5e-05	0
bin	6.6e-05	0
bin	6.7e-05	0
bin	6.8e-05	0
bin	6.9e-05	0
bin	7e-05	0
bin	7.1e-05	0
bin	7.2e-05	0
bin	7.3e-05	0
bin	7.4e-05	0
bin	7.5e-05	0
bin	7.6e-05	0
bin	7.7e-05	0
bin	7.8e-05	0
bin	7.9e-05	0
bin	8e-05	0
bin	8.1e-05	0
bin	8.2e-05	0
bin	8.3e-05	0
bin	8.4e-05	0
bin	8.5e-05	0
bin	8.6e-05	0
bin	8.7e-05	0
bin	8.8e-05	0
bin	8.9e-05	0
bin	9e-05	0
bin	9.1e-05	0
bin	9.2e-05	0
bin	9.3e-05	0
bin	9.4e-05	0
bin	9.5e-05	0
bin	9.6e-05	0
bin	9.7e-05	0
bin	9.8e-05	0
bin	9.9e-05	0
bin	0.0001	0
bin	0.000101	0
bin	0.000102	0
bin	0.000103	0
bin	0.000104	0
bin	0.000105	0
bin	0.000106	0
bin	0.000107	0
bin	0.000108	0
bin	0.000109	0
bin	0.00011	0
bin	0.000111	0
bin	0.000112	0
bin	0.000113	0
bin	0.000114	2
bin	0.000115	0
bin	0.000116	0
bin	0.000117	0
bin	0.000118	0
bin	0.000119	0
bin	0.00012	0
bin	0.000121	0
bin	0.000122	0
bin	0.000123	0
bin	0.000124	0
bin	0.000125	0
bin	0.000126	0
bin	0.000127	0
bin	0.000128	0
bin	0.000129	0
bin	0.00013	0
statistic ManetprotocolsShowcaseB.source.wlan[0].mac.dcf frameSequenceNumPackets:histogram
field count 4
field mean 1.5
field stddev 0.57735026918963
field min 1
field max 2
field sum 6
field sqrsum 10
attr recordingmode histogram
attr source frameSequenceNumPackets(frameSequenceFinished)
attr title "frame sequences: number of packets"
bin	-inf	0
bin	0	0
bin	1	2
bin	2	2
bin	3	0
par ManetprotocolsShowcaseB.source.wlan[0].mac.ds typename "\"inet.linklayer.ieee80211.mac.Ds\""
par ManetprotocolsShowcaseB.source.wlan[0].mac.ds mibModule "\"ManetprotocolsShowcaseB.source.wlan[0].mib\""
par ManetprotocolsShowcaseB.source.wlan[0].mac.rx typename "\"inet.linklayer.ieee80211.mac.Rx\""
par ManetprotocolsShowcaseB.source.wlan[0].mac.tx typename "\"inet.linklayer.ieee80211.mac.Tx\""
par ManetprotocolsShowcaseB.source.wlan[0].mac.tx rxModule "\"^.rx\""
par ManetprotocolsShowcaseB.source.wlan[0].mac typename "\"inet.linklayer.ieee80211.mac.Ieee80211Mac\""
par ManetprotocolsShowcaseB.source.wlan[0].mac interfaceTableModule "\"ManetprotocolsShowcaseB.source.interfaceTable\""
par ManetprotocolsShowcaseB.source.wlan[0].mac mibModule "\"ManetprotocolsShowcaseB.source.wlan[0].mib\""
par ManetprotocolsShowcaseB.source.wlan[0].mac modeSet "\"g(mixed)\""
attr enum a,b,g(erp),g(mixed),n(mixed-2.4Ghz),p,ac
par ManetprotocolsShowcaseB.source.wlan[0].mac fcsMode "\"declared\""
attr enum declared,computed
par ManetprotocolsShowcaseB.source.wlan[0].mac initialRadioMode "\"receiver\""
attr enum off,sleep,receiver,transmitter,transceiver
par ManetprotocolsShowcaseB.source.wlan[0].mac mtu 2304B
attr unit B
par ManetprotocolsShowcaseB.source.wlan[0].mac qosStation false
scalar ManetprotocolsShowcaseB.source.wlan[0].mac packetReceivedFromLower:count 11
attr interpolationmode none
attr recordingmode count
attr title "packets received from lower layer, count"
scalar ManetprotocolsShowcaseB.source.wlan[0].mac packetReceivedFromLower:sum(packetBytes) 732
attr interpolationmode none
attr recordingmode sum(packetBytes)
attr title "packets received from lower layer, sum(packetBytes)"
scalar ManetprotocolsShowcaseB.source.wlan[0].mac packetSentToLower:count 6
attr interpolationmode none
attr recordingmode count
attr title "packets sent to lower layer, count"
scalar ManetprotocolsShowcaseB.source.wlan[0].mac packetSentToLower:sum(packetBytes) 444
attr interpolationmode none
attr recordingmode sum(packetBytes)
attr title "packets sent to lower layer, sum(packetBytes)"
scalar ManetprotocolsShowcaseB.source.wlan[0].mac packetReceivedFromUpper:count 4
attr interpolationmode none
attr recordingmode count
attr title "packets received from upper layer, count"
scalar ManetprotocolsShowcaseB.source.wlan[0].mac packetReceivedFromUpper:sum(packetBytes) 304
attr interpolationmode none
attr recordingmode sum(packetBytes)
attr title "packets received from upper layer, sum(packetBytes)"
scalar ManetprotocolsShowcaseB.source.wlan[0].mac packetSentToUpper:count 6
attr interpolationmode none
attr recordingmode count
attr title "packets sent to upper layer, count"
scalar ManetprotocolsShowcaseB.source.wlan[0].mac packetSentToUpper:sum(packetBytes) 388
attr interpolationmode none
attr recordingmode sum(packetBytes)
attr title "packets sent to upper layer, sum(packetBytes)"
scalar ManetprotocolsShowcaseB.source.wlan[0].mac packetDrop:count 3
attr interpolationmode none
attr recordingmode count
attr source packetDropped
attr title "packet drops, count"
scalar ManetprotocolsShowcaseB.source.wlan[0].mac packetDrop:sum(packetBytes) 148
attr interpolationmode none
attr recordingmode sum(packetBytes)
attr source packetDropped
attr title "packet drops, sum(packetBytes)"
scalar ManetprotocolsShowcaseB.source.wlan[0].mac packetDropIncorrectlyReceived:count 0
attr interpolationmode none
attr recordingmode count
attr source packetDropReasonIsIncorrectlyReceived(packetDropped)
attr title "packet drops: incorrectly received, count"
scalar ManetprotocolsShowcaseB.source.wlan[0].mac packetDropIncorrectlyReceived:sum(packetBytes) 0
attr interpolationmode none
attr recordingmode sum(packetBytes)
attr source packetDropReasonIsIncorrectlyReceived(packetDropped)
attr title "packet drops: incorrectly received, sum(packetBytes)"
scalar ManetprotocolsShowcaseB.source.wlan[0].mac packetDropNotAddressedToUs:count 3
attr interpolationmode none
attr recordingmode count
attr source packetDropReasonIsNotAddressedToUs(packetDropped)
attr title "packet drops: not addressed to us, count"
scalar ManetprotocolsShowcaseB.source.wlan[0].mac packetDropNotAddressedToUs:sum(packetBytes) 148
attr interpolationmode none
attr recordingmode sum(packetBytes)
attr source packetDropReasonIsNotAddressedToUs(packetDropped)
attr title "packet drops: not addressed to us, sum(packetBytes)"
scalar ManetprotocolsShowcaseB.source.wlan[0].mac packetDropQueueOverflow:count 0
attr interpolationmode none
attr recordingmode count
attr source packetDropReasonIsQueueOverflow(packetDropped)
attr title "packet drops: queue overflow, count"
scalar ManetprotocolsShowcaseB.source.wlan[0].mac packetDropQueueOverflow:sum(packetBytes) 0
attr interpolationmode none
attr recordingmode sum(packetBytes)
attr source packetDropReasonIsQueueOverflow(packetDropped)
attr title "packet drops: queue overflow, sum(packetBytes)"
scalar ManetprotocolsShowcaseB.source.wlan[0].mac packetDropRetryLimitReached:count 0
attr interpolationmode none
attr recordingmode count
attr source packetDropReasonIsRetryLimitReached(packetDropped)
attr title "packet drops: retry limit reached, count"
scalar ManetprotocolsShowcaseB.source.wlan[0].mac packetDropRetryLimitReached:sum(packetBytes) 0
attr interpolationmode none
attr recordingmode sum(packetBytes)
attr source packetDropReasonIsRetryLimitReached(packetDropped)
attr title "packet drops: retry limit reached, sum(packetBytes)"
scalar ManetprotocolsShowcaseB.source.wlan[0].mac packetDropDuplicateDetected:count 0
attr interpolationmode none
attr recordingmode count
attr source packetDropReasonIsDuplicateDetected(packetDropped)
attr title "packet drops: duplicate detected, count"
scalar ManetprotocolsShowcaseB.source.wlan[0].mac packetDropDuplicateDetected:sum(packetBytes) 0
attr interpolationmode none
attr recordingmode sum(packetBytes)
attr source packetDropReasonIsDuplicateDetected(packetDropped)
attr title "packet drops: duplicate detected, sum(packetBytes)"
scalar ManetprotocolsShowcaseB.source.wlan[0].mac packetDropOther:count 0
attr interpolationmode none
attr recordingmode count
attr source packetDropReasonIsOther(packetDropped)
attr title "packet drops: other, count"
scalar ManetprotocolsShowcaseB.source.wlan[0].mac packetDropOther:sum(packetBytes) 0
attr interpolationmode none
attr recordingmode sum(packetBytes)
attr source packetDropReasonIsOther(packetDropped)
attr title "packet drops: other, sum(packetBytes)"
scalar ManetprotocolsShowcaseB.source.wlan[0].mac linkBroken:count 0
attr interpolationmode none
attr recordingmode count
attr title "link breaks, count"
par ManetprotocolsShowcaseB.source.wlan[0].radio.antenna typename "\"inet.physicallayer.wireless.common.antenna.IsotropicAntenna\""
par ManetprotocolsShowcaseB.source.wlan[0].radio.antenna mobilityModule "\"^.^.^.mobility\""
par ManetprotocolsShowcaseB.source.wlan[0].radio.antenna numAntennas 1
par ManetprotocolsShowcaseB.source.wlan[0].radio.transmitter typename "\"inet.physicallayer.wireless.ieee80211.packetlevel.Ieee80211ScalarTransmitter\""
par ManetprotocolsShowcaseB.source.wlan[0].radio.transmitter preambleDuration -1s
attr unit s
par ManetprotocolsShowcaseB.source.wlan[0].radio.transmitter headerLength 192b
attr unit b
par ManetprotocolsShowcaseB.source.wlan[0].radio.transmitter bitrate 2.4e+07bps
attr unit bps
par ManetprotocolsShowcaseB.source.wlan[0].radio.transmitter power 0.001W
attr unit W
par ManetprotocolsShowcaseB.source.wlan[0].radio.transmitter centerFrequency 2.412e+09Hz
attr unit Hz
par ManetprotocolsShowcaseB.source.wlan[0].radio.transmitter bandwidth "nan Hz"
attr unit Hz
par ManetprotocolsShowcaseB.source.wlan[0].radio.transmitter codeRate 1
par ManetprotocolsShowcaseB.source.wlan[0].radio.transmitter modulation "\"BPSK\""
par ManetprotocolsShowcaseB.source.wlan[0].radio.transmitter opMode "\"g(mixed)\""
attr enum a,b,g(erp),g(mixed),n(mixed-2.4Ghz),p,ac
par ManetprotocolsShowcaseB.source.wlan[0].radio.transmitter bandName "\"2.4 GHz\""
attr enum "2.4 GHz,5 GHz,5 GHz (20 MHz),5 GHz (40 MHz),5 GHz (80 MHz),5 GHz (160 MHz),5.9 GHz"
par ManetprotocolsShowcaseB.source.wlan[0].radio.transmitter channelNumber 0
par ManetprotocolsShowcaseB.source.wlan[0].radio.receiver.errorModel typename "\"inet.physicallayer.wireless.ieee80211.packetlevel.errormodel.Ieee80211NistErrorModel\""
par ManetprotocolsShowcaseB.source.wlan[0].radio.receiver.errorModel corruptionMode "\"packet\""
attr enum packet,chunk,byte,bit
par ManetprotocolsShowcaseB.source.wlan[0].radio.receiver.errorModel snirMode "\"min\""
attr enum min,mean
par ManetprotocolsShowcaseB.source.wlan[0].radio.receiver.errorModel snirOffset 0dB
attr unit dB
par ManetprotocolsShowcaseB.source.wlan[0].radio.receiver typename "\"inet.physicallayer.wireless.ieee80211.packetlevel.Ieee80211ScalarReceiver\""
par ManetprotocolsShowcaseB.source.wlan[0].radio.receiver snirThreshold 4dB
attr unit dB
par ManetprotocolsShowcaseB.source.wlan[0].radio.receiver snirThresholdMode "\"min\""
attr enum min,mean
par ManetprotocolsShowcaseB.source.wlan[0].radio.receiver energyDetection -85dBm
attr unit dBm
par ManetprotocolsShowcaseB.source.wlan[0].radio.receiver sensitivity -85dBm
attr unit dBm
par ManetprotocolsShowcaseB.source.wlan[0].radio.receiver centerFrequency 2.412e+09Hz
attr unit Hz
par ManetprotocolsShowcaseB.source.wlan[0].radio.receiver bandwidth 2.2e+07Hz
attr unit Hz
par ManetprotocolsShowcaseB.source.wlan[0].radio.receiver modulation "\"BPSK\""
par ManetprotocolsShowcaseB.source.wlan[0].radio.receiver opMode "\"g(mixed)\""
attr enum a,b,g(erp),g(mixed),n(mixed-2.4Ghz),p,ac
par ManetprotocolsShowcaseB.source.wlan[0].radio.receiver bandName "\"2.4 GHz\""
attr enum "2.4 GHz,5 GHz,5 GHz (20 MHz),5 GHz (40 MHz),5 GHz (80 MHz),5 GHz (160 MHz),5.9 GHz"
par ManetprotocolsShowcaseB.source.wlan[0].radio.receiver channelNumber 0
par ManetprotocolsShowcaseB.source.wlan[0].radio typename "\"inet.physicallayer.wireless.ieee80211.packetlevel.Ieee80211ScalarRadio\""
par ManetprotocolsShowcaseB.source.wlan[0].radio radioMediumModule "\"radioMedium\""
par ManetprotocolsShowcaseB.source.wlan[0].radio energySourceModule "\"\""
par ManetprotocolsShowcaseB.source.wlan[0].radio initialRadioMode "\"off\""
attr enum off,sleep,receiver,transmitter,transceiver
par ManetprotocolsShowcaseB.source.wlan[0].radio switchingTimes "\"ms 0 0 0 0 0 0 0 0 0 0 0 0 0 0 0 0 0 0 0 0 0 0 0 0 0\""
par ManetprotocolsShowcaseB.source.wlan[0].radio sendRawBytes false
par ManetprotocolsShowcaseB.source.wlan[0].radio separateTransmissionParts false
par ManetprotocolsShowcaseB.source.wlan[0].radio separateReceptionParts false
par ManetprotocolsShowcaseB.source.wlan[0].radio displayCommunicationRange false
par ManetprotocolsShowcaseB.source.wlan[0].radio displayInterferenceRange false
par ManetprotocolsShowcaseB.source.wlan[0].radio centerFrequency 2.412e+09Hz
attr unit Hz
par ManetprotocolsShowcaseB.source.wlan[0].radio bandwidth "nan Hz"
attr unit Hz
par ManetprotocolsShowcaseB.source.wlan[0].radio signalAnalogRepresentation "\"scalar\""
attr enum scalar,dimensional
par ManetprotocolsShowcaseB.source.wlan[0].radio opMode "\"g(mixed)\""
attr enum a,b,g(erp),g(mixed),n(mixed-2.4Ghz),p,ac
par ManetprotocolsShowcaseB.source.wlan[0].radio bandName "\"2.4 GHz\""
attr enum "2.4 GHz,5 GHz,5 GHz (20 MHz),5 GHz (40 MHz),5 GHz (80 MHz),5 GHz (160 MHz),5.9 GHz"
par ManetprotocolsShowcaseB.source.wlan[0].radio channelNumber 0
par ManetprotocolsShowcaseB.source.wlan[0].radio crcMode "\"declared\""
attr enum declared,computed
statistic ManetprotocolsShowcaseB.source.wlan[0].radio minSnir:histogram
field count 11
field mean 491.48032589129
field stddev 83.297952671461
field min 321.73847364249
field max 528.91910469936
field sum 5406.2835848042
field sqrsum 2726467.5073129
attr recordingmode histogram
attr source minimumSnir(packetSentToUpper)
attr title "Min SNIR"
bin	-inf	0
bin	265	0
bin	270	0
bin	275	0
bin	280	0
bin	285	0
bin	290	0
bin	295	0
bin	300	0
bin	305	0
bin	310	0
bin	315	0
bin	320	2
bin	325	0
bin	330	0
bin	335	0
bin	340	0
bin	345	0
bin	350	0
bin	355	0
bin	360	0
bin	365	0
bin	370	0
bin	375	0
bin	380	0
bin	385	0
bin	390	0
bin	395	0
bin	400	0
bin	405	0
bin	410	0
bin	415	0
bin	420	0
bin	425	0
bin	430	0
bin	435	0
bin	440	0
bin	445	0
bin	450	0
bin	455	0
bin	460	0
bin	465	0
bin	470	0
bin	475	0
bin	480	0
bin	485	0
bin	490	0
bin	495	0
bin	500	0
bin	505	0
bin	510	0
bin	515	0
bin	520	0
bin	525	9
bin	530	0
bin	535	0
bin	540	0
bin	545	0
bin	550	0
bin	555	0
bin	560	0
bin	565	0
bin	570	0
bin	575	0
bin	580	0
bin	585	0
statistic ManetprotocolsShowcaseB.source.wlan[0].radio packetErrorRate:histogram
field count 11
field mean 0
field stddev 0
field min 0
field max 0
field sum 0
field sqrsum 0
attr recordingmode histogram
attr source packetErrorRate(packetSentToUpper)
attr title "Packet error rate"
bin	-inf	0
bin	-0.5	0
bin	-0.48	0
bin	-0.46	0
bin	-0.44	0
bin	-0.42	0
bin	-0.4	0
bin	-0.38	0
bin	-0.36	0
bin	-0.34	0
bin	-0.32	0
bin	-0.3	0
bin	-0.28	0
bin	-0.26	0
bin	-0.24	0
bin	-0.22	0
bin	-0.2	0
bin	-0.18	0
bin	-0.16	0
bin	-0.14	0
bin	-0.12	0
bin	-0.1	0
bin	-0.08	0
bin	-0.06	0
bin	-0.04	0
bin	-0.02	0
bin	0	11
bin	0.02	0
bin	0.04	0
bin	0.06	0
bin	0.08	0
bin	0.1	0
bin	0.12	0
bin	0.14	0
bin	0.16	0
bin	0.18	0
bin	0.2	0
bin	0.22	0
bin	0.24	0
bin	0.26	0
bin	0.28	0
bin	0.3	0
bin	0.32	0
bin	0.34	0
bin	0.36	0
bin	0.38	0
bin	0.4	0
bin	0.42	0
bin	0.44	0
bin	0.46	0
bin	0.48	0
bin	0.5	0
statistic ManetprotocolsShowcaseB.source.wlan[0].radio bitErrorRate:histogram
field count 0
field mean nan
field stddev nan
field min nan
field max nan
field sum 0
field sqrsum 0
attr recordingmode histogram
attr source bitErrorRate(packetSentToUpper)
attr title "Bit error rate"
bin	-inf	0
bin	0	0
bin	1	0
statistic ManetprotocolsShowcaseB.source.wlan[0].radio symbolErrorRate:histogram
field count 0
field mean nan
field stddev nan
field min nan
field max nan
field sum 0
field sqrsum 0
attr recordingmode histogram
attr source symbolErrorRate(packetSentToUpper)
attr title "Symbol error rate"
bin	-inf	0
bin	0	0
bin	1	0
scalar ManetprotocolsShowcaseB.source.wlan[0].radio transmissionState:count 24
attr interpolationmode sample-hold
attr recordingmode count
attr source transmissionStateChanged
attr title "Radio transmission state, count"
scalar ManetprotocolsShowcaseB.source.wlan[0].radio receptionState:count 35
attr interpolationmode sample-hold
attr recordingmode count
attr source receptionStateChanged
attr title "Radio reception state, count"
scalar ManetprotocolsShowcaseB.source.wlan[0].radio radioMode:count 15
attr interpolationmode sample-hold
attr recordingmode count
attr source radioModeChanged
attr title "Radio mode, count"
statistic ManetprotocolsShowcaseB.source.wlan[0].radio radioChannel:histogram
field count 1
field mean 0
field stddev nan
field min 0
field max 0
field sum 0
field sqrsum 0
attr interpolationmode sample-hold
attr recordingmode histogram
attr source radioChannelChanged
attr title "Radio channel"
bin	-inf	0
bin	-0.5	0
bin	-0.48	0
bin	-0.46	0
bin	-0.44	0
bin	-0.42	0
bin	-0.4	0
bin	-0.38	0
bin	-0.36	0
bin	-0.34	0
bin	-0.32	0
bin	-0.3	0
bin	-0.28	0
bin	-0.26	0
bin	-0.24	0
bin	-0.22	0
bin	-0.2	0
bin	-0.18	0
bin	-0.16	0
bin	-0.14	0
bin	-0.12	0
bin	-0.1	0
bin	-0.08	0
bin	-0.06	0
bin	-0.04	0
bin	-0.02	0
bin	0	1
bin	0.02	0
bin	0.04	0
bin	0.06	0
bin	0.08	0
bin	0.1	0
bin	0.12	0
bin	0.14	0
bin	0.16	0
bin	0.18	0
bin	0.2	0
bin	0.22	0
bin	0.24	0
bin	0.26	0
bin	0.28	0
bin	0.3	0
bin	0.32	0
bin	0.34	0
bin	0.36	0
bin	0.38	0
bin	0.4	0
bin	0.42	0
bin	0.44	0
bin	0.46	0
bin	0.48	0
bin	0.5	0
par ManetprotocolsShowcaseB.source.wlan[0] typename "\"inet.linklayer.ieee80211.Ieee80211Interface\""
par ManetprotocolsShowcaseB.source.wlan[0] displayStringTextFormat "\"%a (%i)\\n%m\""
par ManetprotocolsShowcaseB.source.wlan[0] recordPcap false
par ManetprotocolsShowcaseB.source.wlan[0] numPcapRecorders 0
par ManetprotocolsShowcaseB.source.wlan[0] interfaceTableModule "\"ManetprotocolsShowcaseB.source.interfaceTable\""
par ManetprotocolsShowcaseB.source.wlan[0] energySourceModule "\"\""
par ManetprotocolsShowcaseB.source.wlan[0] opMode "\"g(mixed)\""
attr enum a,b,g(erp),g(mixed),n(mixed-2.4Ghz),p,ac
par ManetprotocolsShowcaseB.source.wlan[0] address "\"0A-AA-00-00-00-01\""
attr mutable ""
par ManetprotocolsShowcaseB.source.wlan[0] protocol "\"\""
par ManetprotocolsShowcaseB.source.wlan[0] bitrate 2.4e+07bps
attr unit bps
scalar ManetprotocolsShowcaseB.source.wlan[0] packetDropInterfaceDown:count 0
attr interpolationmode none
attr recordingmode count
attr source packetDropReasonIsInterfaceDown(packetDropped)
attr title "packet drops: interface down, count"
scalar ManetprotocolsShowcaseB.source.wlan[0] packetDropInterfaceDown:sum(packetBytes) 0
attr interpolationmode none
attr recordingmode sum(packetBytes)
attr source packetDropReasonIsInterfaceDown(packetDropped)
attr title "packet drops: interface down, sum(packetBytes)"
scalar ManetprotocolsShowcaseB.source.wlan[0] packetDropNoCarrier:count 0
attr interpolationmode none
attr recordingmode count
attr source packetDropReasonIsNoCarrier(packetDropped)
attr title "packet drops: no carrier, count"
scalar ManetprotocolsShowcaseB.source.wlan[0] packetDropNoCarrier:sum(packetBytes) 0
attr interpolationmode none
attr recordingmode sum(packetBytes)
attr source packetDropReasonIsNoCarrier(packetDropped)
attr title "packet drops: no carrier, sum(packetBytes)"
par ManetprotocolsShowcaseB.source.ipv4.transportIn.channel typename "\"ned.IdealChannel\""
par ManetprotocolsShowcaseB.source.ipv4.up.out[0].channel typename "\"ned.IdealChannel\""
par ManetprotocolsShowcaseB.source.ipv4.lp.out[2].channel typename "\"ned.IdealChannel\""
par ManetprotocolsShowcaseB.source.ipv4.ifIn.channel typename "\"ned.IdealChannel\""
par ManetprotocolsShowcaseB.source.ipv4.configurator typename "\"inet.networklayer.configurator.ipv4.Ipv4NodeConfigurator\""
par ManetprotocolsShowcaseB.source.ipv4.configurator interfaceTableModule "\"ManetprotocolsShowcaseB.source.interfaceTable\""
par ManetprotocolsShowcaseB.source.ipv4.configurator routingTableModule "\"ManetprotocolsShowcaseB.source.ipv4.routingTable\""
par ManetprotocolsShowcaseB.source.ipv4.configurator networkConfiguratorModule "\"configurator\""
par ManetprotocolsShowcaseB.source.ipv4.configurator configureRoutingTable true
par ManetprotocolsShowcaseB.source.ipv4.routingTable typename "\"inet.networklayer.ipv4.Ipv4RoutingTable\""
par ManetprotocolsShowcaseB.source.ipv4.routingTable interfaceTableModule "\"ManetprotocolsShowcaseB.source.interfaceTable\""
par ManetprotocolsShowcaseB.source.ipv4.routingTable routerId "\"auto\""
par ManetprotocolsShowcaseB.source.ipv4.routingTable netmaskRoutes "\"\""
par ManetprotocolsShowcaseB.source.ipv4.routingTable forwarding true
par ManetprotocolsShowcaseB.source.ipv4.routingTable multicastForwarding false
par ManetprotocolsShowcaseB.source.ipv4.routingTable useAdminDist false
par ManetprotocolsShowcaseB.source.ipv4.routingTable routingFile "\"\""
par ManetprotocolsShowcaseB.source.ipv4.natTable typename "\"inet.networklayer.ipv4.Ipv4NatTable\""
par ManetprotocolsShowcaseB.source.ipv4.natTable networkProtocolModule "\"^.ip\""
par ManetprotocolsShowcaseB.source.ipv4.natTable config "<config/> at content:1"
par ManetprotocolsShowcaseB.source.ipv4.up typename "\"inet.common.MessageDispatcher\""
par ManetprotocolsShowcaseB.source.ipv4.up displayStringTextFormat "\"processed %p pk (%l)\""
par ManetprotocolsShowcaseB.source.ipv4.up forwardServiceRegistration true
par ManetprotocolsShowcaseB.source.ipv4.up forwardProtocolRegistration true
par ManetprotocolsShowcaseB.source.ipv4.igmp typename "\"inet.networklayer.ipv4.Igmpv2\""
par ManetprotocolsShowcaseB.source.ipv4.igmp interfaceTableModule "\"ManetprotocolsShowcaseB.source.interfaceTable\""
par ManetprotocolsShowcaseB.source.ipv4.igmp routingTableModule "\"ManetprotocolsShowcaseB.source.ipv4.routingTable\""
par ManetprotocolsShowcaseB.source.ipv4.igmp crcMode "\"declared\""
attr enum declared,computed
par ManetprotocolsShowcaseB.source.ipv4.igmp enabled true
par ManetprotocolsShowcaseB.source.ipv4.igmp robustnessVariable 2
par ManetprotocolsShowcaseB.source.ipv4.igmp queryInterval 125s
attr unit s
par ManetprotocolsShowcaseB.source.ipv4.igmp queryResponseInterval 10s
attr unit s
par ManetprotocolsShowcaseB.source.ipv4.igmp groupMembershipInterval 260s
attr unit s
par ManetprotocolsShowcaseB.source.ipv4.igmp otherQuerierPresentInterval 255s
attr unit s
par ManetprotocolsShowcaseB.source.ipv4.igmp startupQueryInterval 31.25s
attr unit s
par ManetprotocolsShowcaseB.source.ipv4.igmp startupQueryCount 2
par ManetprotocolsShowcaseB.source.ipv4.igmp lastMemberQueryInterval 1s
attr unit s
par ManetprotocolsShowcaseB.source.ipv4.igmp lastMemberQueryCount 2
par ManetprotocolsShowcaseB.source.ipv4.igmp unsolicitedReportInterval 10s
attr unit s
par ManetprotocolsShowcaseB.source.ipv4.icmp typename "\"inet.networklayer.ipv4.Icmp\""
par ManetprotocolsShowcaseB.source.ipv4.icmp interfaceTableModule "\"ManetprotocolsShowcaseB.source.interfaceTable\""
par ManetprotocolsShowcaseB.source.ipv4.icmp routingTableModule "\"ManetprotocolsShowcaseB.source.ipv4.routingTable\""
par ManetprotocolsShowcaseB.source.ipv4.icmp crcMode "\"declared\""
attr enum declared,computed
attr mutable ""
par ManetprotocolsShowcaseB.source.ipv4.icmp quoteLength 8B
attr mutable ""
attr unit B
par ManetprotocolsShowcaseB.source.ipv4.mp typename "\"inet.common.MessageDispatcher\""
par ManetprotocolsShowcaseB.source.ipv4.mp displayStringTextFormat "\"processed %p pk (%l)\""
par ManetprotocolsShowcaseB.source.ipv4.mp forwardServiceRegistration true
par ManetprotocolsShowcaseB.source.ipv4.mp forwardProtocolRegistration true
par ManetprotocolsShowcaseB.source.ipv4.ip typename "\"inet.networklayer.ipv4.Ipv4\""
par ManetprotocolsShowcaseB.source.ipv4.ip interfaceTableModule "\"ManetprotocolsShowcaseB.source.interfaceTable\""
par ManetprotocolsShowcaseB.source.ipv4.ip routingTableModule "\"ManetprotocolsShowcaseB.source.ipv4.routingTable\""
par ManetprotocolsShowcaseB.source.ipv4.ip arpModule "\"ManetprotocolsShowcaseB.source.ipv4.arp\""
par ManetprotocolsShowcaseB.source.ipv4.ip icmpModule "\"ManetprotocolsShowcaseB.source.ipv4.icmp\""
par ManetprotocolsShowcaseB.source.ipv4.ip crcMode "\"declared\""
attr enum declared,computed
par ManetprotocolsShowcaseB.source.ipv4.ip timeToLive 32
par ManetprotocolsShowcaseB.source.ipv4.ip multicastTimeToLive 32
par ManetprotocolsShowcaseB.source.ipv4.ip fragmentTimeout 60s
attr unit s
par ManetprotocolsShowcaseB.source.ipv4.ip limitedBroadcast false
par ManetprotocolsShowcaseB.source.ipv4.ip directBroadcastInterfaces "\"\""
scalar ManetprotocolsShowcaseB.source.ipv4.ip packetDropAddressResolutionFailed:count 0
attr interpolationmode none
attr recordingmode count
attr source packetDropReasonIsAddressResolutionFailed(packetDropped)
attr title "packet drop: address resolution failed, count"
scalar ManetprotocolsShowcaseB.source.ipv4.ip packetDropAddressResolutionFailed:sum(packetBytes) 0
attr interpolationmode none
attr recordingmode sum(packetBytes)
attr source packetDropReasonIsAddressResolutionFailed(packetDropped)
attr title "packet drop: address resolution failed, sum(packetBytes)"
scalar ManetprotocolsShowcaseB.source.ipv4.ip packetDropHopLimitReached:count 0
attr interpolationmode none
attr recordingmode count
attr source packetDropReasonIsHopLimitReached(packetDropped)
attr title "packet drop: hop limit reached, count"
scalar ManetprotocolsShowcaseB.source.ipv4.ip packetDropHopLimitReached:sum(packetBytes) 0
attr interpolationmode none
attr recordingmode sum(packetBytes)
attr source packetDropReasonIsHopLimitReached(packetDropped)
attr title "packet drop: hop limit reached, sum(packetBytes)"
scalar ManetprotocolsShowcaseB.source.ipv4.ip packetDropForwardingDisabled:count 0
attr interpolationmode none
attr recordingmode count
attr source packetDropReasonIsForwardingDisabled(packetDropped)
attr title "packet drop: forwarding disabled, count"
scalar ManetprotocolsShowcaseB.source.ipv4.ip packetDropForwardingDisabled:sum(packetBytes) 0
attr interpolationmode none
attr recordingmode sum(packetBytes)
attr source packetDropReasonIsForwardingDisabled(packetDropped)
attr title "packet drop: forwarding disabled, sum(packetBytes)"
scalar ManetprotocolsShowcaseB.source.ipv4.ip packetDropNoInterfaceFound:count 0
attr interpolationmode none
attr recordingmode count
attr source packetDropReasonIsNoInterfaceFound(packetDropped)
attr title "packet drop: no interface found, count"
scalar ManetprotocolsShowcaseB.source.ipv4.ip packetDropNoInterfaceFound:sum(packetBytes) 0
attr interpolationmode none
attr recordingmode sum(packetBytes)
attr source packetDropReasonIsNoInterfaceFound(packetDropped)
attr title "packet drop: no interface found, sum(packetBytes)"
scalar ManetprotocolsShowcaseB.source.ipv4.ip packetDropNoRouteFound:count 0
attr interpolationmode none
attr recordingmode count
attr source packetDropReasonIsNoRouteFound(packetDropped)
attr title "packet drop: no route found, count"
scalar ManetprotocolsShowcaseB.source.ipv4.ip packetDropNoRouteFound:sum(packetBytes) 0
attr interpolationmode none
attr recordingmode sum(packetBytes)
attr source packetDropReasonIsNoRouteFound(packetDropped)
attr title "packet drop: no route found, sum(packetBytes)"
scalar ManetprotocolsShowcaseB.source.ipv4.ip packetDropUndefined:count 0
attr interpolationmode none
attr recordingmode count
attr source packetDropReasonIsUndefined(packetDropped)
attr title "packet drop: undefined, count"
scalar ManetprotocolsShowcaseB.source.ipv4.ip packetDropUndefined:sum(packetBytes) 0
attr interpolationmode none
attr recordingmode sum(packetBytes)
attr source packetDropReasonIsUndefined(packetDropped)
attr title "packet drop: undefined, sum(packetBytes)"
par ManetprotocolsShowcaseB.source.ipv4.arp typename "\"inet.networklayer.arp.ipv4.GlobalArp\""
par ManetprotocolsShowcaseB.source.ipv4.arp interfaceTableModule "\"ManetprotocolsShowcaseB.source.interfaceTable\""
par ManetprotocolsShowcaseB.source.ipv4.arp addressType "\"ipv4\""
attr enum ipv4,ipv6,mac,moduleid,modulepath
par ManetprotocolsShowcaseB.source.ipv4.lp typename "\"inet.common.MessageDispatcher\""
par ManetprotocolsShowcaseB.source.ipv4.lp displayStringTextFormat "\"processed %p pk (%l)\""
par ManetprotocolsShowcaseB.source.ipv4.lp forwardServiceRegistration true
par ManetprotocolsShowcaseB.source.ipv4.lp forwardProtocolRegistration true
par ManetprotocolsShowcaseB.source.ipv4 typename "\"inet.networklayer.ipv4.Ipv4NetworkLayer\""
par ManetprotocolsShowcaseB.source.ipv4 forwarding true
par ManetprotocolsShowcaseB.source.ipv4 multicastForwarding false
par ManetprotocolsShowcaseB.source.ipv4 interfaceTableModule "\"ManetprotocolsShowcaseB.source.interfaceTable\""
par ManetprotocolsShowcaseB.source.ipv4 displayStringTextFormat "\"%i\""
par ManetprotocolsShowcaseB.source.nl typename "\"inet.common.MessageDispatcher\""
par ManetprotocolsShowcaseB.source.nl displayStringTextFormat "\"processed %p pk (%l)\""
par ManetprotocolsShowcaseB.source.nl forwardServiceRegistration true
par ManetprotocolsShowcaseB.source.nl forwardProtocolRegistration true
par ManetprotocolsShowcaseB.source.udp typename "\"inet.transportlayer.udp.Udp\""
par ManetprotocolsShowcaseB.source.udp interfaceTableModule "\"ManetprotocolsShowcaseB.source.interfaceTable\""
par ManetprotocolsShowcaseB.source.udp icmpModule "\"^.ipv4.icmp\""
par ManetprotocolsShowcaseB.source.udp icmpv6Module "\"^.ipv6.icmpv6\""
par ManetprotocolsShowcaseB.source.udp crcMode "\"declared\""
attr enum disabled,declared,computed
par ManetprotocolsShowcaseB.source.udp defaultMulticastLoop true
scalar ManetprotocolsShowcaseB.source.udp packetReceived:count 5
attr interpolationmode none
attr recordingmode count
attr source packetReceived
attr title "packets received, count"
scalar ManetprotocolsShowcaseB.source.udp packetReceived:sum(packetBytes) 156
attr interpolationmode none
attr recordingmode sum(packetBytes)
attr source packetReceived
attr title "packets received, sum(packetBytes)"
scalar ManetprotocolsShowcaseB.source.udp packetSent:count 2
attr interpolationmode none
attr recordingmode count
attr source packetSent
attr title "packets sent, count"
scalar ManetprotocolsShowcaseB.source.udp packetSent:sum(packetBytes) 64
attr interpolationmode none
attr recordingmode sum(packetBytes)
attr source packetSent
attr title "packets sent, sum(packetBytes)"
scalar ManetprotocolsShowcaseB.source.udp passedUpPk:count 5
attr interpolationmode none
attr recordingmode count
attr source packetSentToUpper
attr title "packets passed up, count"
scalar ManetprotocolsShowcaseB.source.udp droppedPkWrongPort:count 0
attr interpolationmode none
attr recordingmode count
attr source packetDropReasonIsNoPortFound(packetDropped)
attr title "packets dropped (wrong port), count"
scalar ManetprotocolsShowcaseB.source.udp droppedPkBadChecksum:count 0
attr interpolationmode none
attr recordingmode count
attr source packetDropReasonIsIncorrectlyReceived(packetDropped)
attr title "packets dropped (checksum error), count"
par ManetprotocolsShowcaseB.source.tcp typename "\"inet.transportlayer.tcp.Tcp\""
par ManetprotocolsShowcaseB.source.tcp crcMode "\"declared\""
attr enum declared,computed
par ManetprotocolsShowcaseB.source.tcp advertisedWindow 7504
par ManetprotocolsShowcaseB.source.tcp delayedAcksEnabled false
par ManetprotocolsShowcaseB.source.tcp nagleEnabled true
par ManetprotocolsShowcaseB.source.tcp limitedTransmitEnabled false
par ManetprotocolsShowcaseB.source.tcp increasedIWEnabled false
par ManetprotocolsShowcaseB.source.tcp sackSupport false
par ManetprotocolsShowcaseB.source.tcp windowScalingSupport false
par ManetprotocolsShowcaseB.source.tcp windowScalingFactor -1
par ManetprotocolsShowcaseB.source.tcp timestampSupport false
par ManetprotocolsShowcaseB.source.tcp mss 536
par ManetprotocolsShowcaseB.source.tcp msl 120s
attr unit s
par ManetprotocolsShowcaseB.source.tcp tcpAlgorithmClass "\"TcpReno\""
attr enum TcpVegas,TcpWestwood,TcpNewReno,TcpReno,TcpTahoe,TcpNoCongestionControl
par ManetprotocolsShowcaseB.source.tcp useDataNotification false
par ManetprotocolsShowcaseB.source.tcp dupthresh 3
par ManetprotocolsShowcaseB.source.tcp initialSsthresh 4294967295
par ManetprotocolsShowcaseB.source.tcp stopOperationExtraTime 0s
attr unit s
par ManetprotocolsShowcaseB.source.tcp stopOperationTimeout 2s
attr unit s
par ManetprotocolsShowcaseB.source.tcp ecnWillingness false
par ManetprotocolsShowcaseB.source.tcp dctcpGamma 0.0625
par ManetprotocolsShowcaseB.source.tn typename "\"inet.common.MessageDispatcher\""
par ManetprotocolsShowcaseB.source.tn displayStringTextFormat "\"processed %p pk (%l)\""
par ManetprotocolsShowcaseB.source.tn forwardServiceRegistration true
par ManetprotocolsShowcaseB.source.tn forwardProtocolRegistration true
par ManetprotocolsShowcaseB.source.app[0] typename "\"inet.applications.pingapp.PingApp\""
par ManetprotocolsShowcaseB.source.app[0] destAddr "\"destination\""
par ManetprotocolsShowcaseB.source.app[0] srcAddr "\"\""
par ManetprotocolsShowcaseB.source.app[0] packetSize 56B
attr unit B
par ManetprotocolsShowcaseB.source.app[0] sendInterval 1s
attr unit s
par ManetprotocolsShowcaseB.source.app[0] hopLimit -1
par ManetprotocolsShowcaseB.source.app[0] count -1
par ManetprotocolsShowcaseB.source.app[0] startTime 0.844266s
attr unit s
par ManetprotocolsShowcaseB.source.app[0] stopTime -1s
attr unit s
par ManetprotocolsShowcaseB.source.app[0] sleepDuration 0s
attr unit s
par ManetprotocolsShowcaseB.source.app[0] continuous false
par ManetprotocolsShowcaseB.source.app[0] printPing true
par ManetprotocolsShowcaseB.source.app[0] crcMode "\"declared\""
attr enum declared,computed
par ManetprotocolsShowcaseB.source.app[0] networkProtocol "\"\""
par ManetprotocolsShowcaseB.source.app[0] stopOperationExtraTime -1s
attr unit s
par ManetprotocolsShowcaseB.source.app[0] stopOperationTimeout 2s
attr unit s
scalar ManetprotocolsShowcaseB.source.app[0] "Pings sent" 2
scalar ManetprotocolsShowcaseB.source.app[0] "ping loss rate (%)" 50
scalar ManetprotocolsShowcaseB.source.app[0] "ping out-of-order rate (%)" 0
scalar ManetprotocolsShowcaseB.source.app[0] pingRxSeq:count 1
attr interpolationmode none
attr recordingmode count
attr title "ping rx seq, count"
scalar ManetprotocolsShowcaseB.source.app[0] pingTxSeq:count 2
attr interpolationmode none
attr recordingmode count
attr title "ping tx seq, count"
scalar ManetprotocolsShowcaseB.source.app[0] numOutOfOrderArrivals:last nan
attr interpolationmode none
attr recordingmode last
attr title "ping out-of-order arrivals, last"
scalar ManetprotocolsShowcaseB.source.app[0] numLost:last nan
attr interpolationmode none
attr recordingmode last
attr title "pings lost, last"
statistic ManetprotocolsShowcaseB.source.app[0] rtt:histogram
field count 1
field mean 0.338476885967
field stddev nan
field min 0.338476885967
field max 0.338476885967
field sum 0.338476885967
field sqrsum 0.11456660233392
attr interpolationmode none
attr recordingmode histogram
attr title "ping round-trip time"
attr unit s
bin	-inf	0
bin	0	0
bin	0.01	0
bin	0.02	0
bin	0.03	0
bin	0.04	0
bin	0.05	0
bin	0.06	0
bin	0.07	0
bin	0.08	0
bin	0.09	0
bin	0.1	0
bin	0.11	0
bin	0.12	0
bin	0.13	0
bin	0.14	0
bin	0.15	0
bin	0.16	0
bin	0.17	0
bin	0.18	0
bin	0.19	0
bin	0.2	0
bin	0.21	0
bin	0.22	0
bin	0.23	0
bin	0.24	0
bin	0.25	0
bin	0.26	0
bin	0.27	0
bin	0.28	0
bin	0.29	0
bin	0.3	0
bin	0.31	0
bin	0.32	0
bin	0.33	1
bin	0.34	0
bin	0.35	0
bin	0.36	0
bin	0.37	0
bin	0.38	0
bin	0.39	0
bin	0.4	0
bin	0.41	0
bin	0.42	0
bin	0.43	0
bin	0.44	0
bin	0.45	0
bin	0.46	0
bin	0.47	0
bin	0.48	0
bin	0.49	0
bin	0.5	0
bin	0.51	0
bin	0.52	0
bin	0.53	0
bin	0.54	0
bin	0.55	0
bin	0.56	0
bin	0.57	0
bin	0.58	0
bin	0.59	0
bin	0.6	0
bin	0.61	0
bin	0.62	0
bin	0.63	0
bin	0.64	0
bin	0.65	0
bin	0.66	0
bin	0.67	0
bin	0.68	0
bin	0.69	0
bin	0.7	0
bin	0.71	0
bin	0.72	0
bin	0.73	0
bin	0.74	0
bin	0.75	0
bin	0.76	0
bin	0.77	0
bin	0.78	0
bin	0.79	0
bin	0.8	0
bin	0.81	0
bin	0.82	0
bin	0.83	0
bin	0.84	0
par ManetprotocolsShowcaseB.source.at typename "\"inet.common.MessageDispatcher\""
par ManetprotocolsShowcaseB.source.at displayStringTextFormat "\"processed %p pk (%l)\""
par ManetprotocolsShowcaseB.source.at forwardServiceRegistration true
par ManetprotocolsShowcaseB.source.at forwardProtocolRegistration true
par ManetprotocolsShowcaseB.source.routingApp typename "\"inet.routing.aodv.Aodv\""
par ManetprotocolsShowcaseB.source.routingApp routingTableModule "\"^.ipv4.routingTable\""
par ManetprotocolsShowcaseB.source.routingApp interfaceTableModule "\"ManetprotocolsShowcaseB.source.interfaceTable\""
par ManetprotocolsShowcaseB.source.routingApp networkProtocolModule "\"^.ipv4.ip\""
par ManetprotocolsShowcaseB.source.routingApp askGratuitousRREP false
par ManetprotocolsShowcaseB.source.routingApp useHelloMessages false
par ManetprotocolsShowcaseB.source.routingApp useLocalRepair false
par ManetprotocolsShowcaseB.source.routingApp destinationOnlyFlag false
par ManetprotocolsShowcaseB.source.routingApp udpPort 654
par ManetprotocolsShowcaseB.source.routingApp interface "\"wlan0\""
par ManetprotocolsShowcaseB.source.routingApp maxPeriodicJitter 0.25s
attr unit s
par ManetprotocolsShowcaseB.source.routingApp periodicJitter "uniform(0s, maxPeriodicJitter)"
attr unit s
par ManetprotocolsShowcaseB.source.routingApp maxJitter 0.005s
attr unit s
par ManetprotocolsShowcaseB.source.routingApp jitter "uniform(0ms, maxJitter)"
attr unit s
par ManetprotocolsShowcaseB.source.routingApp helloInterval 1s
attr unit s
par ManetprotocolsShowcaseB.source.routingApp allowedHelloLoss 2
par ManetprotocolsShowcaseB.source.routingApp activeRouteTimeout 1s
attr unit s
par ManetprotocolsShowcaseB.source.routingApp netDiameter 35
par ManetprotocolsShowcaseB.source.routingApp nodeTraversalTime 0.04s
attr unit s
par ManetprotocolsShowcaseB.source.routingApp rerrRatelimit 10
par ManetprotocolsShowcaseB.source.routingApp rreqRetries 2
par ManetprotocolsShowcaseB.source.routingApp rreqRatelimit 10
par ManetprotocolsShowcaseB.source.routingApp timeoutBuffer 2
par ManetprotocolsShowcaseB.source.routingApp ttlStart 2
par ManetprotocolsShowcaseB.source.routingApp ttlIncrement 2
par ManetprotocolsShowcaseB.source.routingApp ttlThreshold 7
par ManetprotocolsShowcaseB.source.routingApp localAddTTL 2
par ManetprotocolsShowcaseB.source.routingApp myRouteTimeout 2s
attr unit s
par ManetprotocolsShowcaseB.source.routingApp deletePeriod 0.5s
attr unit s
par ManetprotocolsShowcaseB.source.routingApp blacklistTimeout 5.6s
attr unit s
par ManetprotocolsShowcaseB.source.routingApp netTraversalTime 2.8s
attr unit s
par ManetprotocolsShowcaseB.source.routingApp nextHopWait 0.05s
attr unit s
par ManetprotocolsShowcaseB.source.routingApp pathDiscoveryTime 5.6s
attr unit s
par ManetprotocolsShowcaseB.source typename "\"inet.node.inet.ManetRouter\""
par ManetprotocolsShowcaseB.source hasStatus false
par ManetprotocolsShowcaseB.source osgModel "\"\""
par ManetprotocolsShowcaseB.source osgModelColor "\"\""
par ManetprotocolsShowcaseB.source canvasImage "\"\""
par ManetprotocolsShowcaseB.source canvasImageColor "\"\""
par ManetprotocolsShowcaseB.source recordPcap false
par ManetprotocolsShowcaseB.source numPcapRecorders 0
par ManetprotocolsShowcaseB.source numLoInterfaces 1
par ManetprotocolsShowcaseB.source numWlanInterfaces 1
par ManetprotocolsShowcaseB.source numEthInterfaces 0
par ManetprotocolsShowcaseB.source numPppInterfaces 0
par ManetprotocolsShowcaseB.source numTunInterfaces 0
par ManetprotocolsShowcaseB.source numVirtInterfaces 0
par ManetprotocolsShowcaseB.source fcsMode "\"declared\""
attr enum declared,computed
par ManetprotocolsShowcaseB.source hasIpv4 true
par ManetprotocolsShowcaseB.source hasIpv6 false
par ManetprotocolsShowcaseB.source hasGn false
par ManetprotocolsShowcaseB.source forwarding true
par ManetprotocolsShowcaseB.source multicastForwarding false
par ManetprotocolsShowcaseB.source hasUdp true
par ManetprotocolsShowcaseB.source hasTcp true
par ManetprotocolsShowcaseB.source hasSctp false
par ManetprotocolsShowcaseB.source numApps 1
par ManetprotocolsShowcaseB.node2.radioIn[0].channel typename "\"ned.IdealChannel\""
par ManetprotocolsShowcaseB.node2.mobility typename "\"inet.mobility.single.LinearMobility\""
par ManetprotocolsShowcaseB.node2.mobility subjectModule "\"^\""
par ManetprotocolsShowcaseB.node2.mobility coordinateSystemModule "\"\""
par ManetprotocolsShowcaseB.node2.mobility displayStringTextFormat "\"p: %p\\nv: %v\""
attr mutable ""
par ManetprotocolsShowcaseB.node2.mobility updateDisplayString true
par ManetprotocolsShowcaseB.node2.mobility constraintAreaMinX 0m
attr unit m
par ManetprotocolsShowcaseB.node2.mobility constraintAreaMinY 0m
attr unit m
par ManetprotocolsShowcaseB.node2.mobility constraintAreaMinZ "-inf m"
attr unit m
par ManetprotocolsShowcaseB.node2.mobility constraintAreaMaxX 500m
attr unit m
par ManetprotocolsShowcaseB.node2.mobility constraintAreaMaxY 500m
attr unit m
par ManetprotocolsShowcaseB.node2.mobility constraintAreaMaxZ "inf m"
attr unit m
par ManetprotocolsShowcaseB.node2.mobility updateInterval 0.1s
attr unit s
par ManetprotocolsShowcaseB.node2.mobility faceForward true
par ManetprotocolsShowcaseB.node2.mobility initialX 301.382m
attr unit m
par ManetprotocolsShowcaseB.node2.mobility initialY 428.973m
attr unit m
par ManetprotocolsShowcaseB.node2.mobility initialZ 0m
attr unit m
par ManetprotocolsShowcaseB.node2.mobility initFromDisplayString true
par ManetprotocolsShowcaseB.node2.mobility speed 25mps
attr unit mps
par ManetprotocolsShowcaseB.node2.mobility initialMovementHeading 305.011deg
attr unit deg
par ManetprotocolsShowcaseB.node2.mobility initialMovementElevation 0deg
attr unit deg
par ManetprotocolsShowcaseB.node2.interfaceTable typename "\"inet.networklayer.common.InterfaceTable\""
par ManetprotocolsShowcaseB.node2.interfaceTable displayAddresses false
par ManetprotocolsShowcaseB.node2.cb typename "\"inet.common.MessageDispatcher\""
par ManetprotocolsShowcaseB.node2.cb displayStringTextFormat "\"processed %p pk (%l)\""
par ManetprotocolsShowcaseB.node2.cb forwardServiceRegistration true
par ManetprotocolsShowcaseB.node2.cb forwardProtocolRegistration true
par ManetprotocolsShowcaseB.node2.bl typename "\"inet.common.MessageDispatcher\""
par ManetprotocolsShowcaseB.node2.bl displayStringTextFormat "\"processed %p pk (%l)\""
par ManetprotocolsShowcaseB.node2.bl forwardServiceRegistration true
par ManetprotocolsShowcaseB.node2.bl forwardProtocolRegistration true
par ManetprotocolsShowcaseB.node2.li typename "\"inet.common.MessageDispatcher\""
par ManetprotocolsShowcaseB.node2.li displayStringTextFormat "\"processed %p pk (%l)\""
par ManetprotocolsShowcaseB.node2.li forwardServiceRegistration true
[...]
par ManetprotocolsShowcaseB.manetRouter4.wlan[0] bitrate 2.4e+07bps
attr unit bps
scalar ManetprotocolsShowcaseB.manetRouter4.wlan[0] packetDropInterfaceDown:count 0
attr interpolationmode none
attr recordingmode count
attr source packetDropReasonIsInterfaceDown(packetDropped)
attr title "packet drops: interface down, count"
scalar ManetprotocolsShowcaseB.manetRouter4.wlan[0] packetDropInterfaceDown:sum(packetBytes) 0
attr interpolationmode none
attr recordingmode sum(packetBytes)
attr source packetDropReasonIsInterfaceDown(packetDropped)
attr title "packet drops: interface down, sum(packetBytes)"
scalar ManetprotocolsShowcaseB.manetRouter4.wlan[0] packetDropNoCarrier:count 0
attr interpolationmode none
attr recordingmode count
attr source packetDropReasonIsNoCarrier(packetDropped)
attr title "packet drops: no carrier, count"
scalar ManetprotocolsShowcaseB.manetRouter4.wlan[0] packetDropNoCarrier:sum(packetBytes) 0
attr interpolationmode none
attr recordingmode sum(packetBytes)
attr source packetDropReasonIsNoCarrier(packetDropped)
attr title "packet drops: no carrier, sum(packetBytes)"
par ManetprotocolsShowcaseB.manetRouter4.ipv4.transportIn.channel typename "\"ned.IdealChannel\""
par ManetprotocolsShowcaseB.manetRouter4.ipv4.up.out[0].channel typename "\"ned.IdealChannel\""
par ManetprotocolsShowcaseB.manetRouter4.ipv4.lp.out[2].channel typename "\"ned.IdealChannel\""
par ManetprotocolsShowcaseB.manetRouter4.ipv4.ifIn.channel typename "\"ned.IdealChannel\""
par ManetprotocolsShowcaseB.manetRouter4.ipv4.configurator typename "\"inet.networklayer.configurator.ipv4.Ipv4NodeConfigurator\""
par ManetprotocolsShowcaseB.manetRouter4.ipv4.configurator interfaceTableModule "\"ManetprotocolsShowcaseB.manetRouter4.interfaceTable\""
par ManetprotocolsShowcaseB.manetRouter4.ipv4.configurator routingTableModule "\"ManetprotocolsShowcaseB.manetRouter4.ipv4.routingTable\""
par ManetprotocolsShowcaseB.manetRouter4.ipv4.configurator networkConfiguratorModule "\"configurator\""
par ManetprotocolsShowcaseB.manetRouter4.ipv4.configurator configureRoutingTable true
par ManetprotocolsShowcaseB.manetRouter4.ipv4.routingTable typename "\"inet.networklayer.ipv4.Ipv4RoutingTable\""
par ManetprotocolsShowcaseB.manetRouter4.ipv4.routingTable interfaceTableModule "\"ManetprotocolsShowcaseB.manetRouter4.interfaceTable\""
par ManetprotocolsShowcaseB.manetRouter4.ipv4.routingTable routerId "\"auto\""
par ManetprotocolsShowcaseB.manetRouter4.ipv4.routingTable netmaskRoutes "\"\""
par ManetprotocolsShowcaseB.manetRouter4.ipv4.routingTable forwarding true
par ManetprotocolsShowcaseB.manetRouter4.ipv4.routingTable multicastForwarding false
par ManetprotocolsShowcaseB.manetRouter4.ipv4.routingTable useAdminDist false
par ManetprotocolsShowcaseB.manetRouter4.ipv4.routingTable routingFile "\"\""
par ManetprotocolsShowcaseB.manetRouter4.ipv4.natTable typename "\"inet.networklayer.ipv4.Ipv4NatTable\""
par ManetprotocolsShowcaseB.manetRouter4.ipv4.natTable networkProtocolModule "\"^.ip\""
par ManetprotocolsShowcaseB.manetRouter4.ipv4.natTable config "<config/> at content:1"
par ManetprotocolsShowcaseB.manetRouter4.ipv4.up typename "\"inet.common.MessageDispatcher\""
par ManetprotocolsShowcaseB.manetRouter4.ipv4.up displayStringTextFormat "\"processed %p pk (%l)\""
par ManetprotocolsShowcaseB.manetRouter4.ipv4.up forwardServiceRegistration true
par ManetprotocolsShowcaseB.manetRouter4.ipv4.up forwardProtocolRegistration true
par ManetprotocolsShowcaseB.manetRouter4.ipv4.igmp typename "\"inet.networklayer.ipv4.Igmpv2\""
par ManetprotocolsShowcaseB.manetRouter4.ipv4.igmp interfaceTableModule "\"ManetprotocolsShowcaseB.manetRouter4.interfaceTable\""
par ManetprotocolsShowcaseB.manetRouter4.ipv4.igmp routingTableModule "\"ManetprotocolsShowcaseB.manetRouter4.ipv4.routingTable\""
par ManetprotocolsShowcaseB.manetRouter4.ipv4.igmp crcMode "\"declared\""
attr enum declared,computed
par ManetprotocolsShowcaseB.manetRouter4.ipv4.igmp enabled true
par ManetprotocolsShowcaseB.manetRouter4.ipv4.igmp robustnessVariable 2
par ManetprotocolsShowcaseB.manetRouter4.ipv4.igmp queryInterval 125s
attr unit s
par ManetprotocolsShowcaseB.manetRouter4.ipv4.igmp queryResponseInterval 10s
attr unit s
par ManetprotocolsShowcaseB.manetRouter4.ipv4.igmp groupMembershipInterval 260s
attr unit s
par ManetprotocolsShowcaseB.manetRouter4.ipv4.igmp otherQuerierPresentInterval 255s
attr unit s
par ManetprotocolsShowcaseB.manetRouter4.ipv4.igmp startupQueryInterval 31.25s
attr unit s
par ManetprotocolsShowcaseB.manetRouter4.ipv4.igmp startupQueryCount 2
par ManetprotocolsShowcaseB.manetRouter4.ipv4.igmp lastMemberQueryInterval 1s
attr unit s
par ManetprotocolsShowcaseB.manetRouter4.ipv4.igmp lastMemberQueryCount 2
par ManetprotocolsShowcaseB.manetRouter4.ipv4.igmp unsolicitedReportInterval 10s
attr unit s
par ManetprotocolsShowcaseB.manetRouter4.ipv4.icmp typename "\"inet.networklayer.ipv4.Icmp\""
par ManetprotocolsShowcaseB.manetRouter4.ipv4.icmp interfaceTableModule "\"ManetprotocolsShowcaseB.manetRouter4.interfaceTable\""
par ManetprotocolsShowcaseB.manetRouter4.ipv4.icmp routingTableModule "\"ManetprotocolsShowcaseB.manetRouter4.ipv4.routingTable\""
par ManetprotocolsShowcaseB.manetRouter4.ipv4.icmp crcMode "\"declared\""
attr enum declared,computed
attr mutable ""
par ManetprotocolsShowcaseB.manetRouter4.ipv4.icmp quoteLength 8B
attr mutable ""
attr unit B
par ManetprotocolsShowcaseB.manetRouter4.ipv4.mp typename "\"inet.common.MessageDispatcher\""
par ManetprotocolsShowcaseB.manetRouter4.ipv4.mp displayStringTextFormat "\"processed %p pk (%l)\""
par ManetprotocolsShowcaseB.manetRouter4.ipv4.mp forwardServiceRegistration true
par ManetprotocolsShowcaseB.manetRouter4.ipv4.mp forwardProtocolRegistration true
par ManetprotocolsShowcaseB.manetRouter4.ipv4.ip typename "\"inet.networklayer.ipv4.Ipv4\""
par ManetprotocolsShowcaseB.manetRouter4.ipv4.ip interfaceTableModule "\"ManetprotocolsShowcaseB.manetRouter4.interfaceTable\""
par ManetprotocolsShowcaseB.manetRouter4.ipv4.ip routingTableModule "\"ManetprotocolsShowcaseB.manetRouter4.ipv4.routingTable\""
par ManetprotocolsShowcaseB.manetRouter4.ipv4.ip arpModule "\"ManetprotocolsShowcaseB.manetRouter4.ipv4.arp\""
par ManetprotocolsShowcaseB.manetRouter4.ipv4.ip icmpModule "\"ManetprotocolsShowcaseB.manetRouter4.ipv4.icmp\""
par ManetprotocolsShowcaseB.manetRouter4.ipv4.ip crcMode "\"declared\""
attr enum declared,computed
par ManetprotocolsShowcaseB.manetRouter4.ipv4.ip timeToLive 32
par ManetprotocolsShowcaseB.manetRouter4.ipv4.ip multicastTimeToLive 32
par ManetprotocolsShowcaseB.manetRouter4.ipv4.ip fragmentTimeout 60s
attr unit s
par ManetprotocolsShowcaseB.manetRouter4.ipv4.ip limitedBroadcast false
par ManetprotocolsShowcaseB.manetRouter4.ipv4.ip directBroadcastInterfaces "\"\""
scalar ManetprotocolsShowcaseB.manetRouter4.ipv4.ip packetDropAddressResolutionFailed:count 0
attr interpolationmode none
attr recordingmode count
attr source packetDropReasonIsAddressResolutionFailed(packetDropped)
attr title "packet drop: address resolution failed, count"
scalar ManetprotocolsShowcaseB.manetRouter4.ipv4.ip packetDropAddressResolutionFailed:sum(packetBytes) 0
attr interpolationmode none
attr recordingmode sum(packetBytes)
attr source packetDropReasonIsAddressResolutionFailed(packetDropped)
attr title "packet drop: address resolution failed, sum(packetBytes)"
scalar ManetprotocolsShowcaseB.manetRouter4.ipv4.ip packetDropHopLimitReached:count 0
attr interpolationmode none
attr recordingmode count
attr source packetDropReasonIsHopLimitReached(packetDropped)
attr title "packet drop: hop limit reached, count"
scalar ManetprotocolsShowcaseB.manetRouter4.ipv4.ip packetDropHopLimitReached:sum(packetBytes) 0
attr interpolationmode none
attr recordingmode sum(packetBytes)
attr source packetDropReasonIsHopLimitReached(packetDropped)
attr title "packet drop: hop limit reached, sum(packetBytes)"
scalar ManetprotocolsShowcaseB.manetRouter4.ipv4.ip packetDropForwardingDisabled:count 0
attr interpolationmode none
attr recordingmode count
attr source packetDropReasonIsForwardingDisabled(packetDropped)
attr title "packet drop: forwarding disabled, count"
scalar ManetprotocolsShowcaseB.manetRouter4.ipv4.ip packetDropForwardingDisabled:sum(packetBytes) 0
attr interpolationmode none
attr recordingmode sum(packetBytes)
attr source packetDropReasonIsForwardingDisabled(packetDropped)
attr title "packet drop: forwarding disabled, sum(packetBytes)"
scalar ManetprotocolsShowcaseB.manetRouter4.ipv4.ip packetDropNoInterfaceFound:count 0
attr interpolationmode none
attr recordingmode count
attr source packetDropReasonIsNoInterfaceFound(packetDropped)
attr title "packet drop: no interface found, count"
scalar ManetprotocolsShowcaseB.manetRouter4.ipv4.ip packetDropNoInterfaceFound:sum(packetBytes) 0
attr interpolationmode none
attr recordingmode sum(packetBytes)
attr source packetDropReasonIsNoInterfaceFound(packetDropped)
attr title "packet drop: no interface found, sum(packetBytes)"
scalar ManetprotocolsShowcaseB.manetRouter4.ipv4.ip packetDropNoRouteFound:count 0
attr interpolationmode none
attr recordingmode count
attr source packetDropReasonIsNoRouteFound(packetDropped)
attr title "packet drop: no route found, count"
scalar ManetprotocolsShowcaseB.manetRouter4.ipv4.ip packetDropNoRouteFound:sum(packetBytes) 0
attr interpolationmode none
attr recordingmode sum(packetBytes)
attr source packetDropReasonIsNoRouteFound(packetDropped)
attr title "packet drop: no route found, sum(packetBytes)"
scalar ManetprotocolsShowcaseB.manetRouter4.ipv4.ip packetDropUndefined:count 0
attr interpolationmode none
attr recordingmode count
attr source packetDropReasonIsUndefined(packetDropped)
attr title "packet drop: undefined, count"
scalar ManetprotocolsShowcaseB.manetRouter4.ipv4.ip packetDropUndefined:sum(packetBytes) 0
attr interpolationmode none
attr recordingmode sum(packetBytes)
attr source packetDropReasonIsUndefined(packetDropped)
attr title "packet drop: undefined, sum(packetBytes)"
par ManetprotocolsShowcaseB.manetRouter4.ipv4.arp typename "\"inet.networklayer.arp.ipv4.GlobalArp\""
par ManetprotocolsShowcaseB.manetRouter4.ipv4.arp interfaceTableModule "\"ManetprotocolsShowcaseB.manetRouter4.interfaceTable\""
par ManetprotocolsShowcaseB.manetRouter4.ipv4.arp addressType "\"ipv4\""
attr enum ipv4,ipv6,mac,moduleid,modulepath
par ManetprotocolsShowcaseB.manetRouter4.ipv4.lp typename "\"inet.common.MessageDispatcher\""
par ManetprotocolsShowcaseB.manetRouter4.ipv4.lp displayStringTextFormat "\"processed %p pk (%l)\""
par ManetprotocolsShowcaseB.manetRouter4.ipv4.lp forwardServiceRegistration true
par ManetprotocolsShowcaseB.manetRouter4.ipv4.lp forwardProtocolRegistration true
par ManetprotocolsShowcaseB.manetRouter4.ipv4 typename "\"inet.networklayer.ipv4.Ipv4NetworkLayer\""
par ManetprotocolsShowcaseB.manetRouter4.ipv4 forwarding true
par ManetprotocolsShowcaseB.manetRouter4.ipv4 multicastForwarding false
par ManetprotocolsShowcaseB.manetRouter4.ipv4 interfaceTableModule "\"ManetprotocolsShowcaseB.manetRouter4.interfaceTable\""
par ManetprotocolsShowcaseB.manetRouter4.ipv4 displayStringTextFormat "\"%i\""
par ManetprotocolsShowcaseB.manetRouter4.nl typename "\"inet.common.MessageDispatcher\""
par ManetprotocolsShowcaseB.manetRouter4.nl displayStringTextFormat "\"processed %p pk (%l)\""
par ManetprotocolsShowcaseB.manetRouter4.nl forwardServiceRegistration true
par ManetprotocolsShowcaseB.manetRouter4.nl forwardProtocolRegistration true
par ManetprotocolsShowcaseB.manetRouter4.udp typename "\"inet.transportlayer.udp.Udp\""
par ManetprotocolsShowcaseB.manetRouter4.udp interfaceTableModule "\"ManetprotocolsShowcaseB.manetRouter4.interfaceTable\""
par ManetprotocolsShowcaseB.manetRouter4.udp icmpModule "\"^.ipv4.icmp\""
par ManetprotocolsShowcaseB.manetRouter4.udp icmpv6Module "\"^.ipv6.icmpv6\""
par ManetprotocolsShowcaseB.manetRouter4.udp crcMode "\"declared\""
attr enum disabled,declared,computed
par ManetprotocolsShowcaseB.manetRouter4.udp defaultMulticastLoop true
scalar ManetprotocolsShowcaseB.manetRouter4.udp packetReceived:count 5
attr interpolationmode none
attr recordingmode count
attr source packetReceived
attr title "packets received, count"
scalar ManetprotocolsShowcaseB.manetRouter4.udp packetReceived:sum(packetBytes) 156
attr interpolationmode none
attr recordingmode sum(packetBytes)
attr source packetReceived
attr title "packets received, sum(packetBytes)"
scalar ManetprotocolsShowcaseB.manetRouter4.udp packetSent:count 2
attr interpolationmode none
attr recordingmode count
attr source packetSent
attr title "packets sent, count"
scalar ManetprotocolsShowcaseB.manetRouter4.udp packetSent:sum(packetBytes) 60
attr interpolationmode none
attr recordingmode sum(packetBytes)
attr source packetSent
attr title "packets sent, sum(packetBytes)"
scalar ManetprotocolsShowcaseB.manetRouter4.udp passedUpPk:count 5
attr interpolationmode none
attr recordingmode count
attr source packetSentToUpper
attr title "packets passed up, count"
scalar ManetprotocolsShowcaseB.manetRouter4.udp droppedPkWrongPort:count 0
attr interpolationmode none
attr recordingmode count
attr source packetDropReasonIsNoPortFound(packetDropped)
attr title "packets dropped (wrong port), count"
scalar ManetprotocolsShowcaseB.manetRouter4.udp droppedPkBadChecksum:count 0
attr interpolationmode none
attr recordingmode count
attr source packetDropReasonIsIncorrectlyReceived(packetDropped)
attr title "packets dropped (checksum error), count"
par ManetprotocolsShowcaseB.manetRouter4.tcp typename "\"inet.transportlayer.tcp.Tcp\""
par ManetprotocolsShowcaseB.manetRouter4.tcp crcMode "\"declared\""
attr enum declared,computed
par ManetprotocolsShowcaseB.manetRouter4.tcp advertisedWindow 7504
par ManetprotocolsShowcaseB.manetRouter4.tcp delayedAcksEnabled false
par ManetprotocolsShowcaseB.manetRouter4.tcp nagleEnabled true
par ManetprotocolsShowcaseB.manetRouter4.tcp limitedTransmitEnabled false
par ManetprotocolsShowcaseB.manetRouter4.tcp increasedIWEnabled false
par ManetprotocolsShowcaseB.manetRouter4.tcp sackSupport false
par ManetprotocolsShowcaseB.manetRouter4.tcp windowScalingSupport false
par ManetprotocolsShowcaseB.manetRouter4.tcp windowScalingFactor -1
par ManetprotocolsShowcaseB.manetRouter4.tcp timestampSupport false
par ManetprotocolsShowcaseB.manetRouter4.tcp mss 536
par ManetprotocolsShowcaseB.manetRouter4.tcp msl 120s
attr unit s
par ManetprotocolsShowcaseB.manetRouter4.tcp tcpAlgorithmClass "\"TcpReno\""
attr enum TcpVegas,TcpWestwood,TcpNewReno,TcpReno,TcpTahoe,TcpNoCongestionControl
par ManetprotocolsShowcaseB.manetRouter4.tcp useDataNotification false
par ManetprotocolsShowcaseB.manetRouter4.tcp dupthresh 3
par ManetprotocolsShowcaseB.manetRouter4.tcp initialSsthresh 4294967295
par ManetprotocolsShowcaseB.manetRouter4.tcp stopOperationExtraTime 0s
attr unit s
par ManetprotocolsShowcaseB.manetRouter4.tcp stopOperationTimeout 2s
attr unit s
par ManetprotocolsShowcaseB.manetRouter4.tcp ecnWillingness false
par ManetprotocolsShowcaseB.manetRouter4.tcp dctcpGamma 0.0625
par ManetprotocolsShowcaseB.manetRouter4.tn typename "\"inet.common.MessageDispatcher\""
par ManetprotocolsShowcaseB.manetRouter4.tn displayStringTextFormat "\"processed %p pk (%l)\""
par ManetprotocolsShowcaseB.manetRouter4.tn forwardServiceRegistration true
par ManetprotocolsShowcaseB.manetRouter4.tn forwardProtocolRegistration true
par ManetprotocolsShowcaseB.manetRouter4.at typename "\"inet.common.MessageDispatcher\""
par ManetprotocolsShowcaseB.manetRouter4.at displayStringTextFormat "\"processed %p pk (%l)\""
par ManetprotocolsShowcaseB.manetRouter4.at forwardServiceRegistration true
par ManetprotocolsShowcaseB.manetRouter4.at forwardProtocolRegistration true
par ManetprotocolsShowcaseB.manetRouter4.routingApp typename "\"inet.routing.aodv.Aodv\""
par ManetprotocolsShowcaseB.manetRouter4.routingApp routingTableModule "\"^.ipv4.routingTable\""
par ManetprotocolsShowcaseB.manetRouter4.routingApp interfaceTableModule "\"ManetprotocolsShowcaseB.manetRouter4.interfaceTable\""
par ManetprotocolsShowcaseB.manetRouter4.routingApp networkProtocolModule "\"^.ipv4.ip\""
par ManetprotocolsShowcaseB.manetRouter4.routingApp askGratuitousRREP false
par ManetprotocolsShowcaseB.manetRouter4.routingApp useHelloMessages false
par ManetprotocolsShowcaseB.manetRouter4.routingApp useLocalRepair false
par ManetprotocolsShowcaseB.manetRouter4.routingApp destinationOnlyFlag false
par ManetprotocolsShowcaseB.manetRouter4.routingApp udpPort 654
par ManetprotocolsShowcaseB.manetRouter4.routingApp interface "\"wlan0\""
par ManetprotocolsShowcaseB.manetRouter4.routingApp maxPeriodicJitter 0.25s
attr unit s
par ManetprotocolsShowcaseB.manetRouter4.routingApp periodicJitter "uniform(0s, maxPeriodicJitter)"
attr unit s
par ManetprotocolsShowcaseB.manetRouter4.routingApp maxJitter 0.005s
attr unit s
par ManetprotocolsShowcaseB.manetRouter4.routingApp jitter "uniform(0ms, maxJitter)"
attr unit s
par ManetprotocolsShowcaseB.manetRouter4.routingApp helloInterval 1s
attr unit s
par ManetprotocolsShowcaseB.manetRouter4.routingApp allowedHelloLoss 2
par ManetprotocolsShowcaseB.manetRouter4.routingApp activeRouteTimeout 1s
attr unit s
par ManetprotocolsShowcaseB.manetRouter4.routingApp netDiameter 35
par ManetprotocolsShowcaseB.manetRouter4.routingApp nodeTraversalTime 0.04s
attr unit s
par ManetprotocolsShowcaseB.manetRouter4.routingApp rerrRatelimit 10
par ManetprotocolsShowcaseB.manetRouter4.routingApp rreqRetries 2
par ManetprotocolsShowcaseB.manetRouter4.routingApp rreqRatelimit 10
par ManetprotocolsShowcaseB.manetRouter4.routingApp timeoutBuffer 2
par ManetprotocolsShowcaseB.manetRouter4.routingApp ttlStart 2
par ManetprotocolsShowcaseB.manetRouter4.routingApp ttlIncrement 2
par ManetprotocolsShowcaseB.manetRouter4.routingApp ttlThreshold 7
par ManetprotocolsShowcaseB.manetRouter4.routingApp localAddTTL 2
par ManetprotocolsShowcaseB.manetRouter4.routingApp myRouteTimeout 2s
attr unit s
par ManetprotocolsShowcaseB.manetRouter4.routingApp deletePeriod 0.5s
attr unit s
par ManetprotocolsShowcaseB.manetRouter4.routingApp blacklistTimeout 5.6s
attr unit s
par ManetprotocolsShowcaseB.manetRouter4.routingApp netTraversalTime 2.8s
attr unit s
par ManetprotocolsShowcaseB.manetRouter4.routingApp nextHopWait 0.05s
attr unit s
par ManetprotocolsShowcaseB.manetRouter4.routingApp pathDiscoveryTime 5.6s
attr unit s
par ManetprotocolsShowcaseB.manetRouter4 typename "\"inet.node.inet.ManetRouter\""
par ManetprotocolsShowcaseB.manetRouter4 hasStatus false
par ManetprotocolsShowcaseB.manetRouter4 osgModel "\"\""
par ManetprotocolsShowcaseB.manetRouter4 osgModelColor "\"\""
par ManetprotocolsShowcaseB.manetRouter4 canvasImage "\"\""
par ManetprotocolsShowcaseB.manetRouter4 canvasImageColor "\"\""
par ManetprotocolsShowcaseB.manetRouter4 recordPcap false
par ManetprotocolsShowcaseB.manetRouter4 numPcapRecorders 0
par ManetprotocolsShowcaseB.manetRouter4 numLoInterfaces 1
par ManetprotocolsShowcaseB.manetRouter4 numWlanInterfaces 1
par ManetprotocolsShowcaseB.manetRouter4 numEthInterfaces 0
par ManetprotocolsShowcaseB.manetRouter4 numPppInterfaces 0
par ManetprotocolsShowcaseB.manetRouter4 numTunInterfaces 0
par ManetprotocolsShowcaseB.manetRouter4 numVirtInterfaces 0
par ManetprotocolsShowcaseB.manetRouter4 fcsMode "\"declared\""
attr enum declared,computed
par ManetprotocolsShowcaseB.manetRouter4 hasIpv4 true
par ManetprotocolsShowcaseB.manetRouter4 hasIpv6 false
par ManetprotocolsShowcaseB.manetRouter4 hasGn false
par ManetprotocolsShowcaseB.manetRouter4 forwarding true
par ManetprotocolsShowcaseB.manetRouter4 multicastForwarding false
par ManetprotocolsShowcaseB.manetRouter4 hasUdp true
par ManetprotocolsShowcaseB.manetRouter4 hasTcp true
par ManetprotocolsShowcaseB.manetRouter4 hasSctp false
par ManetprotocolsShowcaseB.manetRouter4 numApps 0
par ManetprotocolsShowcaseB typename "\"inet.examples.demo123.ManetprotocolsShowcaseB\""

